23
101892.log	Energy: -312556.3745146
C         -3.27063       -0.17484       -0.51937
C         -2.43898       -1.20109       -0.25971
C         -1.17565       -0.96211        0.50621
C          0.05982       -1.78162        0.20819
C          1.12262       -0.94268        0.08211
C          2.53145       -1.20244       -0.14164
C          3.39053       -0.16475       -0.27152
C          2.94146        1.21963       -0.18657
C          1.64116        1.53208        0.02796
C          0.66717        0.47354        0.17130
C         -0.68574        0.48140        0.34902
C         -1.68264        1.52714        0.26224
C         -2.92611        1.20298       -0.15738
H         -4.22180       -0.32161       -1.02788
H         -2.65202       -2.22779       -0.54164
H         -1.41596       -1.12464        1.60147
H          0.03756       -2.85080        0.16247
H          2.85432       -2.23924       -0.19889
H          4.45370       -0.32697       -0.44444
H          3.69955        1.99220       -0.30202
H          1.29099        2.55979        0.09636
H         -1.38357        2.54548        0.49638
H         -3.70963        1.95023       -0.26681
