32
10398412.log	Energy: -432475.3038505
C         -0.00662        2.80470       -0.36353
C         -1.46133        2.75982        0.04997
C         -0.49338        1.71100        0.57920
C         -0.57705        0.29861        0.11214
C          0.49532       -0.44234       -0.20850
C          1.90302        0.06429       -0.18438
C          2.91280       -1.06721        0.04102
C          4.31873       -0.55710       -0.03398
O          4.77905        0.43020       -0.55476
O          5.16156       -1.43456        0.61886
C         -1.94327       -0.27681        0.04716
C         -2.71050       -0.39933        1.21694
C         -3.99438       -0.94539        1.15431
C         -4.52084       -1.36770       -0.07148
C         -3.75985       -1.24187       -1.23725
C         -2.47293       -0.69869       -1.18143
H          0.64110        3.59004        0.01835
H          0.26514        2.54717       -1.38532
H         -1.85572        3.51242        0.72811
H         -2.21653        2.46804       -0.67877
H         -0.19732        1.77409        1.63676
H          0.37335       -1.47944       -0.52737
H          2.12393        0.58430       -1.14551
H          2.03384        0.84483        0.59662
H          2.73510       -1.56486        1.02121
H          2.78330       -1.87326       -0.71646
H          6.11334       -1.15199        0.58518
H         -2.30204       -0.06822        2.16993
H         -4.58749       -1.04231        2.06236
H         -5.52148       -1.79258       -0.11646
H         -4.16918       -1.56704       -2.19228
H         -1.88243       -0.59830       -2.09023
