26
10512801.log	Energy: -451107.6320915
C         -4.33128        0.80227       -0.00429
C         -4.67383       -0.70860        0.01949
O         -3.36972       -1.38384        0.01163
C         -2.38700       -0.37366       -0.00632
N         -2.84884        0.84901       -0.01569
C         -1.03653       -0.88501       -0.00987
C          0.07396       -0.11752       -0.00852
C          1.49077       -0.58575       -0.00537
C          2.02554       -1.85889       -0.00808
C          3.43301       -1.98562       -0.00190
C          4.25845       -0.86582        0.00763
C          3.71374        0.43766        0.01008
C          2.34029        0.56025        0.00262
C          1.48509        1.79122        0.00164
O          1.76369        2.96159        0.00575
N          0.13483        1.30144       -0.00634
H         -4.72731        1.31911       -0.90196
H         -4.71440        1.34479        0.88364
H         -5.17464       -1.04629        0.93734
H         -5.19715       -1.07014       -0.87647
H         -0.96036       -1.97744       -0.01159
H          1.39260       -2.74459       -0.01546
H          3.87216       -2.98460       -0.00502
H          5.34222       -0.98737        0.01315
H          4.36072        1.31608        0.01778
H         -0.70075        1.89213       -0.00894
