30
1078669.log	Energy: -473716.2753635
C         -0.50249        3.08381        0.92125
C          0.31668        1.92386        0.52124
C         -0.10010        0.65678        0.05254
C          1.08583       -0.12483       -0.17900
C          2.18399        0.66766        0.15101
N          1.70764        1.92112        0.59093
C          3.61474        0.29049        0.02369
C          3.72431       -1.22783       -0.22599
C          2.66957       -1.72641       -1.22714
C          1.23644       -1.50625       -0.70397
C         -1.46845        0.26589       -0.19588
C         -2.06856       -0.86209        0.27861
C         -3.41481       -1.21949       -0.05853
N         -4.49993       -1.51267       -0.32706
C         -1.41864       -1.76401        1.18037
N         -0.91108       -2.49046        1.92274
C         -2.22825        1.18716       -1.01362
N         -2.80926        1.94210       -1.66671
H          0.06270        3.86010        1.45557
H         -1.32879        2.78111        1.58654
H         -0.96327        3.57005        0.04254
H          2.28136        2.68120        0.90609
H          4.18857        0.56446        0.93137
H          4.07812        0.84675       -0.81891
H          3.60396       -1.76762        0.73469
H          4.73852       -1.47020       -0.59330
H          2.79564       -1.20326       -2.19498
H          2.82768       -2.80171       -1.43316
H          0.50096       -1.70986       -1.50723
H          1.02137       -2.24025        0.10403
