30
10846305.log	Energy: -429321.2227003
C          2.59328        0.64227        0.89240
C          3.31578        0.40976       -0.44413
O          3.41371       -1.00220       -0.72170
C          2.13479       -1.66804       -0.75154
C          1.39029       -1.46543        0.57829
N          1.25299       -0.01534        0.90775
C          0.15518        0.68997        0.36134
C          0.17232        2.03309        0.14097
C         -0.97581        2.77081       -0.23267
N         -1.89883        3.39851       -0.54471
C         -1.09808       -0.09550        0.16827
C         -1.54728       -0.38207       -1.12870
C         -2.73337       -1.09902       -1.30613
C         -3.46936       -1.52592       -0.19567
C         -3.02109       -1.23472        1.09688
C         -1.83573       -0.51876        1.28328
H          2.49864        1.72751        1.11404
H          3.18302        0.19999        1.72951
H          2.80625        0.90967       -1.28643
H          4.37743        0.71432       -0.40932
H          2.42554       -2.72185       -0.91416
H          1.55504       -1.29842       -1.61489
H          1.96229       -1.93568        1.41252
H          0.39850       -1.96571        0.55848
H          1.07752        2.63403        0.26206
H         -0.98394       -0.03186       -1.99301
H         -3.09022       -1.31637       -2.31245
H         -4.39711       -2.07884       -0.33869
H         -3.60013       -1.55959        1.96059
H         -1.48721       -0.28042        2.28857
