30
10860.log	Energy: -496904.1859000
C          5.23956        1.57542        0.14522
C          3.94425        1.95948       -0.20936
C          2.96263        0.99912       -0.47118
C          3.28794       -0.36279       -0.36779
C          4.59056       -0.75757        0.00087
C          5.55726        0.21578        0.24778
N          2.36612       -1.41555       -0.75315
N          0.99003       -1.10920       -0.74552
C          0.28514       -0.92685        0.47134
O          0.71448       -1.25700        1.55258
N         -0.99310       -0.22009        0.31134
N         -2.04038       -0.87351        0.15071
C         -3.29359       -0.16591        0.05503
C         -4.39353       -0.98098       -0.27864
C         -5.66115       -0.40650       -0.38434
C         -5.83612        0.96302       -0.15616
C         -4.74184        1.76842        0.18059
C         -3.46698        1.21126        0.28806
H          5.99806        2.32873        0.34550
H          3.69229        3.01739       -0.28407
H          1.96096        1.32044       -0.74366
H          4.84603       -1.81175        0.08729
H          6.56670       -0.08596        0.52765
H          2.52148       -2.28446       -0.20199
H          0.68540       -0.64350       -1.60806
H         -4.24838       -2.05010       -0.44985
H         -6.51754       -1.02922       -0.64338
H         -6.82975        1.40434       -0.23859
H         -4.88493        2.83379        0.36150
H         -2.60958        1.83336        0.55494
