22
10876803.log	Energy: -501492.0552080
C         -2.84255       -0.30572        0.98653
C         -1.90546       -0.11654       -0.18889
N         -0.94860        0.99820        0.08632
C         -1.27057        2.26041       -0.62977
C          0.41819        0.58190        0.04646
C          1.51721        1.42562        0.24998
C          2.79859        0.85982        0.29249
C          2.99269       -0.51381        0.12833
C          1.89564       -1.36642       -0.07776
C          0.63100       -0.80881       -0.11895
S         -0.87672       -1.65740       -0.37066
H         -2.29340       -0.47175        1.92699
H         -3.51140       -1.16324        0.84222
H         -3.46568        0.58463        1.14773
H         -2.47264        0.03022       -1.13988
H         -2.31659        2.53972       -0.42055
H         -0.63426        3.07420       -0.24066
H         -1.12878        2.20208       -1.72076
H          1.38278        2.49431        0.38776
H          3.65815        1.50955        0.45692
H          3.99673       -0.92968        0.16104
H          2.04442       -2.43776       -0.20504
