25
10884890.log	Energy: -585701.1260293
C          2.64544       -2.36429        0.47234
H          2.84076       -3.35236        0.82334
C          3.66227       -1.44859       -0.09019
H          4.68100       -1.74763       -0.26211
C          3.07224       -0.23684       -0.32302
H          3.52170        0.65066       -0.72762
C          1.61835       -0.36543        0.04592
C          1.44124       -1.72760        0.56357
H          0.53029       -2.12413        0.98770
C          0.72740        0.66339       -0.09714
C          1.22792        2.01714       -0.35536
S          0.01849        3.08524        0.00179
C         -1.19329        2.02960        0.35240
C         -0.72770        0.66755        0.10830
C         -1.61209       -0.36429       -0.04249
C         -3.06986       -0.20541        0.30281
H         -3.46563        0.72258        0.67607
C         -3.68903       -1.39825        0.07205
H         -4.72581       -1.64419        0.22070
C         -2.67519       -2.35228       -0.47565
H         -2.94681       -3.35142       -0.77174
C         -1.46477       -1.73425       -0.53742
H         -0.54815       -2.14579       -0.93638
H          2.23075        2.24245       -0.66656
H         -2.19160        2.30329        0.65127
