23
10910065.log	Energy: -354122.5983946
C          3.38181       -1.06620        0.02543
C          2.90570       -0.26811        1.07130
C          1.56379        0.11725        1.10399
C          0.69444       -0.29459        0.08328
C          1.16979       -1.09807       -0.96296
C          2.51356       -1.48164       -0.98882
C         -0.73125        0.11646        0.10839
C         -1.74208       -0.75984        0.25018
C         -3.19166       -0.38488        0.30372
N         -4.02871       -1.58699        0.01019
N         -1.04819        1.51676        0.01510
N         -0.22654        2.38582       -0.34921
N          0.34941        3.32232       -0.63698
H          4.42897       -1.36479        0.00211
H          3.58156        0.05152        1.86373
H          1.18948        0.72683        1.92629
H          0.49234       -1.42252       -1.75218
H          2.88370       -2.10549       -1.80132
H         -1.52979       -1.82740        0.37474
H         -3.43125       -0.03619        1.33908
H         -3.40499        0.47854       -0.36865
H         -5.01277       -1.36667        0.12892
H         -3.90371       -1.88141       -0.95354
