24
10931776.log	Energy: -335948.3974613
C         -3.37183       -0.36333        0.04914
C         -2.61522       -0.40915        1.22453
C         -1.25270       -0.10214        1.19534
C         -0.64428        0.25965       -0.01646
C         -1.40339        0.30857       -1.19475
C         -2.76497       -0.00404       -1.15829
C          0.79776        0.59593       -0.04798
C          1.76925       -0.32293       -0.05674
C          1.52658       -1.80001       -0.01690
O          2.75571       -2.53039       -0.12906
C          1.08631        2.07783       -0.08480
O          2.45134        2.38000        0.22750
H         -4.43247       -0.60746        0.07328
H         -3.08771       -0.68883        2.16532
H         -0.66301       -0.14238        2.10939
H         -0.93036        0.58590       -2.13515
H         -3.35374        0.03334       -2.07376
H          2.82435       -0.02927       -0.08822
H          1.13722       -2.12986        0.96934
H          0.83141       -2.13327       -0.81229
H          3.18982       -2.34385       -0.98523
H          0.97557        2.48023       -1.11348
H          0.42525        2.63896        0.60297
H          2.66218        2.09722        1.14167
