20
10942591.log	Energy: -298296.6451162
C          3.28590       -0.03220        0.01671
C          2.57886       -1.07446       -0.59077
C          1.18206       -1.06650       -0.60147
C          0.47885       -0.00904        0.00176
C          1.19331        1.03846        0.61002
C          2.58937        1.02340        0.61420
C         -0.99206        0.00552       -0.00468
C         -1.68922       -1.06530        0.51411
N         -3.05279       -1.12857        0.53675
C         -1.65865        1.17173       -0.56381
O         -2.88196        1.28262       -0.60823
H          4.37328       -0.04118        0.02263
H          3.11923       -1.89476       -1.06057
H          0.63763       -1.87098       -1.08984
H          0.65610        1.85567        1.08674
H          3.13823        1.83699        1.08663
H         -1.14067       -1.92380        0.93634
H         -3.54255       -1.89986        0.94749
H         -3.60883       -0.34666        0.16394
H         -1.01768        1.97389       -0.96114
