30
1095028.log	Energy: -450089.0801584
C          3.85786       -0.16617        0.81185
C          2.78507        0.84220        1.24252
C          2.03520        1.40325        0.02214
N          1.42761        0.33290       -0.82924
C          2.46489       -0.65960       -1.24516
C          3.25729       -1.26595       -0.07386
C          0.18540       -0.20203       -0.36368
C         -0.08891       -1.53228       -0.16564
C         -1.40383       -2.04507        0.10721
C         -2.50629       -1.23498        0.20802
C         -2.29916        0.19376        0.05512
N         -3.12642        1.24330        0.12940
O         -2.37389        2.36833       -0.09414
N         -1.05383        2.05418       -0.31291
C         -0.93383        0.72274       -0.23231
N         -3.82293       -1.72595        0.34961
H          4.33127       -0.61713        1.70417
H          4.66772        0.35663        0.26692
H          2.06783        0.35936        1.93424
H          3.24584        1.67139        1.81053
H          2.73248        1.97270       -0.63356
H          1.25904        2.12889        0.34381
H          3.15646       -0.11366       -1.92845
H          1.99039       -1.45415       -1.85904
H          4.05766       -1.92077       -0.46504
H          2.59834       -1.91636        0.53384
H          0.70854       -2.27565       -0.21608
H         -1.49666       -3.12422        0.22033
H         -4.51044       -1.05814        0.67700
H         -3.91048       -2.62173        0.80913
