24
11105839.log	Energy: -346575.1145132
C         -1.71038        2.08773        0.04213
C         -0.20502        2.36436       -0.18346
C          0.49837        1.01354       -0.14588
C          1.83675        0.92341       -0.15509
C          2.62575       -0.32355       -0.11160
O          2.45402       -1.32432       -0.79285
N          3.69158       -0.31243        0.79681
C         -0.54122       -0.02483       -0.05131
C         -0.43964       -1.41181       -0.08942
C         -1.60805       -2.18259        0.03057
C         -2.85450       -1.57337        0.17671
C         -2.97264       -0.17289        0.19564
C         -1.81943        0.58813        0.07475
H         -2.32932        2.52077       -0.76445
H         -2.06814        2.53773        0.98617
H         -0.03336        2.85614       -1.15964
H          0.19777        3.04687        0.58505
H          2.44310        1.82993       -0.22864
H          3.87664        0.44967        1.41981
H          4.28102       -1.12463        0.88536
H          0.52987       -1.90373       -0.23006
H         -1.53280       -3.26875        0.00386
H         -3.75055       -2.18627        0.27160
H         -3.94744        0.29515        0.29774
