25
11126547.log	Energy: -300313.3924114
C         -0.76465        2.12699        0.08103
C          0.72929        1.73319       -0.05667
C          0.77595        0.21705       -0.12123
C          1.87358       -0.54122       -0.21819
C          3.27327       -0.00864       -0.29933
N          4.22981       -0.93761        0.38166
C         -0.61375       -0.27451       -0.06256
C         -1.09819       -1.57616       -0.10560
C         -2.48644       -1.78335       -0.02893
C         -3.36346       -0.70496        0.08836
C         -2.88035        0.61514        0.13176
C         -1.51136        0.82154        0.05562
H         -1.08540        2.79208       -0.74003
H         -0.95053        2.67636        1.02152
H          1.17112        2.17475       -0.96750
H          1.31768        2.10830        0.79909
H          1.80194       -1.63107       -0.26776
H          3.57897        0.03799       -1.37513
H          3.33667        1.03087        0.09100
H          5.08507       -0.44381        0.61792
H          3.83730       -1.27888        1.25452
H         -0.42141       -2.42266       -0.19847
H         -2.87689       -2.79876       -0.06225
H         -4.43628       -0.88148        0.14725
H         -3.57033        1.44924        0.22269
