26
111435.log	Energy: -531246.7863110
C         -4.23755       -0.63155       -0.84043
C         -3.96672       -0.79930        0.52099
C         -2.70030       -0.48846        1.02545
C         -1.70949       -0.00917        0.15935
C         -1.97664        0.15458       -1.20802
C         -3.24477       -0.15496       -1.70407
C         -0.32518        0.32761        0.68627
N          0.64660       -0.70364        0.20178
C          1.95368       -0.33856       -0.08977
C          2.35668        0.93665       -0.27820
C          1.40676        2.04960       -0.12905
O          1.61932        3.21882       -0.36793
N          0.11536        1.68814        0.35146
N          2.93001       -1.48980       -0.26440
O          4.00181       -1.24366       -0.76905
O          2.54200       -2.57499        0.13240
O         -0.37140        0.19929        2.10608
H         -5.22555       -0.87415       -1.23288
H         -4.74066       -1.17195        1.19102
H         -2.47969       -0.61251        2.08983
H         -1.19895        0.51995       -1.88062
H         -3.45880       -0.02766       -2.76494
H          0.44817       -1.67543        0.48291
H          3.37479        1.20827       -0.57451
H         -0.59167        2.42850        0.43062
H          0.35594        0.66780        2.56969
