34
1133517.log	Energy: -477609.1986989
C          2.11217       -2.84341       -0.26242
C          2.49506       -1.41628       -0.06152
C          1.47917       -0.38509       -0.09451
C          1.85353        0.97573        0.09945
C          3.22416        1.30412        0.33828
C          4.16917        0.31279        0.37162
C          3.80134       -1.05003        0.16912
C          0.83202        1.96553        0.02831
C         -0.47785        1.60668       -0.21251
C         -0.79428        0.19964       -0.33093
N          0.15529       -0.74995       -0.28440
N         -2.16142       -0.16622       -0.58717
C         -2.42455       -1.59235       -0.98111
C         -2.98758       -2.32098        0.25539
C         -3.42425       -1.22060        1.23977
C         -3.09739        0.12394        0.55766
C         -1.50165        2.66509       -0.40886
O         -1.33158        3.80547       -0.02919
H          1.30902       -2.94559       -1.01055
H          1.71718       -3.27284        0.67130
H          2.95256       -3.46556       -0.59171
H          3.49316        2.34881        0.48917
H          5.21793        0.54466        0.55353
H          4.58726       -1.80501        0.20212
H          1.09213        3.02396        0.14967
H         -3.17381       -1.55064       -1.80085
H         -1.52168       -2.09186       -1.38475
H         -2.21487       -2.96673        0.71042
H         -3.82767       -2.97932       -0.01803
H         -2.88426       -1.31808        2.19759
H         -4.49809       -1.29320        1.47735
H         -2.67752        0.85772        1.27042
H         -4.01183        0.57297        0.11270
H         -2.41841        2.36155       -0.94037
