34
1133520.log	Energy: -477609.4701764
C          5.50167       -0.15063        0.35231
C          4.02912       -0.32918        0.17757
C          3.17101        0.74530        0.16710
C          1.76572        0.54941       -0.00376
C          0.83252        1.62126       -0.04716
C         -0.51511        1.37439       -0.22101
C         -0.96611       -0.00037       -0.28272
N         -0.09498       -1.03248       -0.26885
C          1.25815       -0.77349       -0.15540
C          2.17284       -1.88225       -0.15856
C          3.51198       -1.65852        0.00460
N         -2.35076       -0.27689       -0.46564
C         -2.75060       -1.71448       -0.67373
C         -4.09336       -1.90979        0.05187
C         -4.16008       -0.78802        1.09971
C         -3.29784        0.34881        0.52363
C         -1.43218        2.52285       -0.42651
O         -1.19554        3.63060        0.00918
H          6.02001       -0.19847       -0.61711
H          5.93766       -0.92901        0.99340
H          5.75795        0.81535        0.80761
H          3.54099        1.76261        0.28779
H          1.18845        2.65429        0.03912
H          1.76428       -2.88486       -0.29141
H          4.21589       -2.49153        0.00272
H         -2.83326       -1.87197       -1.76847
H         -1.98881       -2.43050       -0.29387
H         -4.16005       -2.90779        0.51478
H         -4.93807       -1.83354       -0.65592
H         -3.75877       -1.13308        2.06975
H         -5.19538       -0.46017        1.28623
H         -2.77238        0.91013        1.32062
H         -3.92855        1.06845       -0.04391
H         -2.33178        2.31918       -1.03104
