22
11469371.log	Energy: -366563.2641820
C          3.37576       -1.04336        0.03460
C          2.85549       -0.34567        1.13031
C          1.51010        0.02792        1.14933
C          0.68298       -0.29637        0.06352
C          1.20095       -0.99949       -1.03252
C          2.54852       -1.37078       -1.04405
C         -0.74617        0.10549        0.07522
C         -1.75552       -0.77235        0.20178
C         -3.20413       -0.40050        0.23829
O         -4.02823       -1.56415        0.07622
N         -1.07302        1.50123       -0.02777
N         -0.23334        2.38907       -0.30078
N          0.35253        3.33589       -0.52358
H          4.42613       -1.33243        0.02280
H          3.50058       -0.09587        1.97228
H          1.10077        0.55970        2.00811
H          0.55467       -1.25596       -1.87144
H          2.95349       -1.91645       -1.89568
H         -1.55223       -1.83959        0.32274
H         -3.50193       -0.02472        1.24042
H         -3.47497        0.35133       -0.52752
H         -3.91164       -1.94548       -0.81533
