36
11470450.log	Energy: -457521.3159187
C         -4.47343       -2.11407       -0.89419
C         -5.27045       -1.32649       -0.05970
C         -4.71004       -0.25626        0.64594
C         -3.34299        0.02582        0.51947
C         -2.54330       -0.76899       -0.31886
C         -3.10799       -1.83248       -1.02258
C         -2.72008        1.16653        1.27639
C         -2.00248        2.15612        0.35462
O         -0.66347        1.61298        0.22881
C          0.07316        2.12829       -0.90789
C          1.40351        1.43892       -0.91133
C          1.85001        0.69461        0.10675
C          3.15016        0.00839        0.12842
C          3.27884       -1.19019        0.85465
C          4.49946       -1.86609        0.88739
C          5.60765       -1.35210        0.20492
C          5.48871       -0.15765       -0.51096
C          4.26794        0.52136       -0.55097
H         -4.91148       -2.94523       -1.44173
H         -6.33199       -1.54377        0.04276
H         -5.33869        0.35186        1.29178
H         -1.47868       -0.53685       -0.41382
H         -2.48574       -2.44590       -1.67203
H         -3.46925        1.70304        1.89027
H         -1.97742        0.75674        2.00195
H         -2.48204        2.23259       -0.63564
H         -1.91450        3.15795        0.80940
H         -0.49790        1.90951       -1.83079
H          0.19117        3.22272       -0.78858
H          1.98118        1.59490       -1.82340
H          1.22462        0.55113        0.99828
H          2.42070       -1.59536        1.38898
H          4.59015       -2.79551        1.44721
H          6.55829       -1.87993        0.23400
H          6.35010        0.24771       -1.03934
H          4.18721        1.45609       -1.10225
