26
114754.log	Energy: -425488.1868643
C          3.46240       -1.21588       -0.00377
C          2.21023       -1.73963        0.00092
C          1.05168       -0.86810       -0.00027
C          1.25623        0.56677       -0.00354
C          2.59258        1.08799       -0.01329
C          3.66438        0.22409       -0.00786
N          4.98992        0.70230        0.08009
N          0.18977        1.41667       -0.00143
C         -1.05148        0.86940        0.00104
C         -2.21103        1.73998        0.00165
C         -3.46286        1.21594        0.00685
C         -3.66375       -0.22510        0.00773
C         -2.59241       -1.08845        0.01137
C         -1.25596       -0.56642        0.00251
N         -0.19038       -1.41603        0.00250
N         -4.98972       -0.70156       -0.08391
H          4.34007       -1.86179        0.01097
H          2.02803       -2.81741        0.00689
H          2.71207        2.17013       -0.01026
H          5.13783        1.67208       -0.16098
H          5.71729        0.09965       -0.27404
H         -2.02967        2.81795       -0.00332
H         -4.34092        1.86126       -0.00460
H         -2.71097       -2.17074        0.00823
H         -5.13581       -1.67638        0.13746
H         -5.71525       -0.10805        0.28885
