28
115200.log	Energy: -426233.1513996
C          2.00904        2.90154        0.00196
C          1.12381        1.70215        0.00111
C         -0.24108        1.83405        0.00235
C         -1.04033        0.65770       -0.00024
C         -0.47131       -0.65206        0.00292
C          0.94947       -0.80793        0.00081
C          1.74248        0.37564        0.00131
N          3.12427        0.30335        0.00104
C          3.70438       -0.90061       -0.00087
C          2.97356       -2.12436       -0.00228
C          1.59718       -2.07285       -0.00173
N         -1.48165       -1.61868        0.01557
C         -2.65229       -0.92568        0.00858
N         -2.43046        0.47539       -0.00859
C         -3.44717        1.52968       -0.01513
N         -3.97845       -1.45247       -0.04426
H          2.70454        2.87591       -0.85402
H          2.64902        2.91478        0.89988
H          1.46088        3.84829       -0.03729
H         -0.72198        2.80818        0.00288
H          4.80118       -0.91480       -0.00065
H          3.50744       -3.07098       -0.00441
H          0.98258       -2.97645       -0.00531
H         -4.42519        1.11787       -0.33519
H         -3.56752        1.96964        0.99133
H         -3.17093        2.33402       -0.72041
H         -3.99852       -2.33104       -0.56827
H         -4.34383       -1.63214        0.89230
