24
11521152.log	Energy: -323353.4676301
C         -0.60869        2.28013       -0.27438
C          0.89894        2.14147       -0.04085
C          1.37860        0.71579       -0.03830
C          2.76074        0.47704       -0.11605
C          3.26032       -0.82411       -0.06978
C          2.38321       -1.90635        0.06048
C          1.00946       -1.68008        0.13112
C          0.48805       -0.37412        0.07380
C         -0.97081       -0.14366        0.13157
C         -1.86268       -1.10981       -0.17681
C         -3.27185       -0.93228       -0.13930
N         -4.42281       -0.80556       -0.11572
C         -1.38916        1.24251        0.54023
H         -0.83837        2.15566       -1.35230
H         -0.94306        3.30099       -0.00818
H          1.44682        2.72858       -0.80739
H          1.17066        2.60141        0.93537
H          3.45042        1.31443       -0.21087
H          4.33422       -0.99828       -0.13246
H          2.77194       -2.92204        0.10570
H          0.33213       -2.52904        0.23836
H         -1.54679       -2.11233       -0.48993
H         -1.19595        1.37523        1.62695
H         -2.47914        1.40511        0.41448
