24
11586510.log	Energy: -427157.5953988
C          3.11168        0.24378        0.01108
C          3.06819       -1.25709       -0.01356
C          1.92806       -1.96589       -0.01164
N          0.67036       -1.29734        0.00380
C          0.61369        0.14164        0.00161
C          1.74300        0.88650        0.00373
C          1.72143        2.31127        0.00047
N          1.71874        3.46876        0.00191
C         -0.82655        0.48888       -0.00053
C         -1.47157        1.71152       -0.00532
C         -2.88412        1.71747       -0.00732
C         -3.61301        0.53184       -0.00167
C         -2.95919       -0.71899        0.00414
C         -1.57862       -0.72618        0.00361
C         -0.64573       -1.89396        0.00463
O         -0.83438       -3.08166        0.00490
H          3.67087        0.58266        0.91388
H          3.69564        0.61193       -0.86411
H          4.03882       -1.74944       -0.02797
H          1.86236       -3.05861       -0.02267
H         -0.92214        2.65348       -0.00828
H         -3.40565        2.67701       -0.01322
H         -4.70339        0.56133       -0.00137
H         -3.52877       -1.64979        0.00923
