20
116929.log	Energy: -471689.1858198
C         -0.99263        1.21583        0.01966
C         -1.62813       -0.01279       -0.00120
C         -0.94703       -1.22455       -0.02037
C          0.46000       -1.18731       -0.02244
C          1.18832        0.03526        0.00032
C          0.43188        1.25826        0.02229
N          1.05154        2.47993        0.04622
C          2.63300        0.10430        0.00302
O          3.36915        1.07251        0.02621
O          3.23658       -1.14705       -0.02558
O          1.02245       -2.40855       -0.04769
N         -3.13555       -0.03817       -0.00015
O         -3.70893        1.01967       -0.19842
O         -3.68095       -1.10748        0.19964
H         -1.57698        2.13852        0.02518
H         -1.46967       -2.18526       -0.02721
H          2.06950        2.56978        0.05079
H          0.51921        3.33504        0.05939
H          4.22956       -1.09613       -0.02407
H          2.03760       -2.42097       -0.04750
