27
1177871.log	Energy: -664327.4946749
C         -1.87798        2.85847        0.85097
C         -2.12197        2.15443       -0.48349
C         -2.58028        0.73408       -0.28073
C         -3.95224        0.45714       -0.27353
C         -4.42703       -0.84426       -0.08607
C         -3.52384       -1.89194        0.10088
C         -2.14958       -1.64599        0.10663
C         -1.67225       -0.33898       -0.08197
N         -0.26514       -0.04762       -0.08121
C          0.76160       -0.97892        0.06183
O          0.60384       -2.17604        0.22026
C          2.15154       -0.40128        0.00356
N          2.46426        0.87365       -0.10194
S          4.16738        1.00831       -0.12005
N          4.47511       -0.67602        0.01584
C          3.32745       -1.30564        0.07281
H         -2.78290        2.85669        1.47206
H         -1.58057        3.90239        0.70156
H         -1.09099        2.36781        1.43610
H         -2.88004        2.71868       -1.06784
H         -1.20632        2.19240       -1.11063
H         -4.66204        1.27193       -0.41682
H         -5.49804       -1.03674       -0.08808
H         -3.88745       -2.90897        0.24534
H         -1.45094       -2.47672        0.25912
H         -0.01483        0.94463       -0.20998
H          3.21309       -2.38955        0.16370
