27
1177873.log	Energy: -664329.6815642
C          5.68076       -0.32657        0.20970
C          4.19232       -0.34710        0.08494
C          3.51028        0.80021       -0.34104
C          2.11364        0.81411       -0.46867
C          1.40014       -0.36439       -0.15333
C          2.07934       -1.51806        0.27631
C          3.46717       -1.51083        0.38949
N         -0.03531       -0.45387       -0.29315
C         -0.92424        0.37128        0.38220
O         -0.59677        1.30672        1.09156
C         -2.38199        0.06050        0.16057
N         -2.86695       -0.95765       -0.51819
S         -4.57364       -0.87291       -0.46678
N         -4.64555        0.55521        0.48675
C         -3.42240        0.94259        0.74910
C          1.42150        2.05239       -0.92317
H          6.08026       -1.22955        0.68915
H          6.02324        0.53092        0.80673
H          6.15855       -0.24615       -0.77790
H          4.07447        1.70183       -0.57642
H          1.52109       -2.41955        0.52819
H          3.98603       -2.40743        0.72144
H         -0.38126       -1.25859       -0.82399
H         -3.15704        1.82114        1.34325
H          0.70419        1.85095       -1.73021
H          0.84557        2.49541       -0.08542
H          2.11285        2.82328       -1.28314
