28
11798.log	Energy: -498656.6715752
C         -3.70068        0.90929       -0.00600
C         -2.48695        1.58857       -0.00080
C         -1.26726        0.89112       -0.00355
C         -1.28219       -0.51533       -0.00439
C         -2.48218       -1.21570       -0.00600
C         -3.70877       -0.50367       -0.00237
N         -4.91862       -1.20448        0.07701
C         -0.00039       -1.30041       -0.00699
O         -0.00038       -2.51420       -0.01290
C          1.28177       -0.51591       -0.00071
C          1.26742        0.89042        0.00060
C         -0.00007        1.66556       -0.00514
O          0.00102        2.88403       -0.01070
C          2.48673        1.58818        0.00672
C          3.70062        0.90918        0.01767
C          3.70875       -0.50381        0.01101
C          2.48231       -1.21588        0.00650
N          4.91910       -1.20451       -0.06338
H         -4.63478        1.46540        0.00044
H         -2.46607        2.68480        0.00136
H         -2.46840       -2.30759        0.00030
H         -4.92232       -2.18422       -0.15876
H         -5.76966       -0.72038       -0.15889
H          2.46567        2.68445        0.00513
H          4.63464        1.46541        0.01746
H          2.46809       -2.30777       -0.00282
H          5.76862       -0.72091        0.17931
H          4.92115       -2.18462        0.17056
