25
11966259.log	Energy: -383302.4924199
C         -3.83176       -0.26776        0.11096
C         -3.14869       -1.51723        0.10716
C         -1.77824       -1.56309        0.03989
C         -1.00565       -0.35893       -0.02875
C         -1.69066        0.88391       -0.02829
C         -3.11902        0.90391        0.04410
C         -0.94284        2.10417       -0.10038
C          0.42466        2.08038       -0.16053
C          1.12659        0.83751       -0.14460
C          0.43526       -0.36890       -0.09379
C          1.17122       -1.63821       -0.14222
C          2.51217       -1.69979       -0.23428
C          3.34209       -0.47645       -0.23783
H          4.34769       -0.55144       -0.65877
C          2.61163        0.85992       -0.19040
H          3.08240        1.76695       -0.57990
O          3.29280        0.32494        0.99052
H         -4.91923       -0.26228        0.16820
H         -3.73547       -2.43389        0.15985
H         -1.25573       -2.52164        0.04025
H         -3.62830        1.86728        0.04747
H         -1.48653        3.04886       -0.10235
H          0.99675        3.00733       -0.20672
H          0.56911       -2.55197       -0.12469
H          3.04629       -2.64536       -0.31374
