29
1204360.log	Energy: -486196.2173074
C         -4.63204       -0.08156       -0.48846
C         -4.09492       -1.36184       -0.65295
C         -2.74441       -1.59895       -0.37618
C         -1.92229       -0.55192        0.05599
C         -2.46437        0.73578        0.22298
C         -3.82254        0.96878       -0.04765
C         -1.64921        1.83040        0.66657
N         -0.99397        2.71900        1.01010
C         -0.48597       -0.87756        0.38401
O         -0.17906       -1.72589        1.19872
N          0.44491       -0.14002       -0.35342
C          1.87096       -0.25596       -0.19764
C          2.46396       -1.49142        0.09617
C          3.85461       -1.60198        0.16925
C          4.65961       -0.48226       -0.05256
C          4.08280        0.76140       -0.31654
C          2.68484        0.90002       -0.37352
N          2.09207        2.15886       -0.70493
H         -5.68690        0.09971       -0.70049
H         -4.73111       -2.18085       -0.99226
H         -2.32801       -2.60426       -0.48523
H         -4.24336        1.96652        0.08896
H          0.13251        0.53631       -1.05511
H          1.83264       -2.36612        0.27847
H          4.30623       -2.56542        0.39833
H          5.74433       -0.57445       -0.01057
H          4.72122        1.62811       -0.47478
H          2.75878        2.92387       -0.73991
H          1.31878        2.42137       -0.09612
