25
12076122.log	Energy: -346707.9194771
C          1.49041       -0.79037        1.53056
C          1.44494       -0.82420        0.00150
C          2.06303       -2.11469       -0.54510
C          0.02647       -0.62503       -0.56464
H          0.12028       -0.56335       -1.68226
C         -0.96458       -1.73822       -0.17381
O         -2.27490       -1.07943       -0.16704
C         -2.09727        0.28789        0.02428
O         -3.02277        1.00947        0.27460
N         -0.71990        0.58135       -0.09221
C         -0.20729        1.90225        0.00172
C          1.07123        2.14104       -0.16066
C          2.33683        2.38421       -0.32896
H          0.97502       -1.64738        1.97102
H          1.01137        0.11747        1.91558
H          2.52077       -0.80074        1.89722
H          2.08872        0.01324       -0.36669
H          1.53319       -3.01022       -0.20753
H          2.08175       -2.12684       -1.63824
H          3.09829       -2.20965       -0.20013
H         -1.04644       -2.55205       -0.90279
H         -0.81793       -2.12862        0.84626
H         -0.94808        2.67060        0.26082
H          3.06301        2.34225        0.47314
H          2.75805        2.64823       -1.29067
