30
1207367.log	Energy: -476139.9729252
C          1.29676        2.80014       -0.06244
N          1.26056        1.33980       -0.25551
C          2.38502        0.50426       -0.06435
C          3.73671        0.85549       -0.01400
C          4.66846       -0.18188        0.10062
C          4.27636       -1.52600        0.17052
C          2.92174       -1.87568        0.13115
C          1.97471       -0.86454        0.01931
C          0.50845       -0.93215       -0.03307
O         -0.24375       -1.86431       -0.02073
C          0.05221        0.56637       -0.11116
N         -1.10105        1.12902       -0.08596
C         -2.35301        0.44659       -0.02261
C         -2.94394       -0.05446       -1.19647
C         -4.23188       -0.58815       -1.13338
C         -4.92484       -0.63008        0.08077
C         -4.32658       -0.13489        1.24406
C         -3.04208        0.40877        1.20392
H          0.32459        3.24099       -0.36258
H          2.07946        3.24024       -0.70279
H          1.48545        3.07753        0.98810
H          4.05666        1.89082       -0.06702
H          5.73187        0.06469        0.13804
H          5.03205       -2.30344        0.25778
H          2.60578       -2.91896        0.18859
H         -2.40349       -0.02298       -2.13959
H         -4.69717       -0.97763       -2.03825
H         -5.92673       -1.05060        0.12104
H         -4.86516       -0.17275        2.19011
H         -2.57848        0.80217        2.10540
