31
1213077.log	Energy: -463717.4507219
C         -2.64524       -2.19403        1.19159
C         -2.97040       -0.96242        0.41284
C         -4.30334       -0.57820        0.22335
C         -4.62619        0.57147       -0.50383
C         -3.61191        1.35166       -1.06251
C         -2.27422        0.98846       -0.89544
C         -1.94693       -0.15833       -0.15329
N         -0.58459       -0.57025        0.02288
C          0.49984        0.29769        0.16609
C          0.37025        1.62253        0.58366
C          1.50346        2.44245        0.76745
C          2.78274        1.97492        0.55197
C          2.96481        0.62834        0.14136
N          4.25770        0.13905       -0.07069
C          4.38768       -1.12157       -0.45571
C          3.24091       -1.98303       -0.65466
N          2.00399       -1.54765       -0.46055
C          1.83646       -0.22951       -0.05785
H         -1.86200       -2.00372        1.94217
H         -2.28529       -3.00048        0.53658
H         -3.51403       -2.58851        1.73568
H         -5.10204       -1.18301        0.65226
H         -5.66883        0.85489       -0.63520
H         -3.86022        2.24410       -1.63542
H         -1.48740        1.58924       -1.35243
H         -0.38085       -1.55010       -0.20406
H         -0.61388        2.03643        0.80026
H          1.34803        3.47359        1.09328
H          3.65976        2.60558        0.69045
H          5.40078       -1.50719       -0.62298
H          3.37874       -3.02158       -0.97221
