32
12267491.log	Energy: -406860.1394634
C          3.97514        0.05153        0.95090
C          3.11095        1.09352        0.22810
C          2.51988        0.50750       -1.06309
N          1.74462       -0.73802       -0.80475
C          2.60143       -1.77721       -0.14786
C          3.20702       -1.26055        1.16885
C          0.41601       -0.70526       -0.37708
C         -0.47199        0.33032       -0.32630
C         -0.16119        1.70883       -0.46606
N          0.06094        2.84331       -0.55540
C         -1.90483        0.04481       -0.07467
C         -2.58485        0.70385        0.96318
C         -3.93068        0.42069        1.20505
C         -4.60690       -0.51727        0.41745
C         -3.93325       -1.16782       -0.62093
C         -2.58711       -0.89006       -0.87053
H          4.31226        0.45432        1.92529
H          4.89582       -0.14361        0.36773
H          2.29646        1.44371        0.89358
H          3.70784        1.99494       -0.00771
H          3.33747        0.23912       -1.77293
H          1.89364        1.24722       -1.60337
H          3.40807       -2.04380       -0.86815
H          2.01408       -2.70305        0.02414
H          3.87768       -2.02772        1.59884
H          2.40391       -1.10273        1.91561
H          0.02043       -1.71322       -0.13554
H         -2.06197        1.43726        1.57555
H         -4.45485        0.93360        2.01023
H         -5.65522       -0.73527        0.60901
H         -4.46047       -1.89028       -1.24206
H         -2.07184       -1.38487       -1.69120
