26
12275330.log	Energy: -523513.8688899
C          0.37903        2.75704       -0.88019
C          1.65784        3.00451       -0.37081
C          2.41771        1.94872        0.13719
C          1.89334        0.64900        0.13728
C          0.58805        0.40023       -0.34041
C         -0.15454        1.46484       -0.86892
C          0.08482       -0.97836       -0.30649
C         -1.18365       -1.41677       -0.16920
C         -2.39603       -0.67995        0.07784
C         -3.72689       -1.02989       -0.04351
C         -4.50192        0.09718        0.39314
C         -3.60809        1.07038        0.76579
O         -2.29869        0.63507        0.58255
C          1.13515       -2.03931       -0.41674
O          1.02436       -3.13552       -0.89460
O          2.36817       -1.74976        0.16602
C          2.74326       -0.45857        0.61349
O          3.73748       -0.43370        1.28162
H         -0.20904        3.57870       -1.29309
H          2.06356        4.01576       -0.37384
H          3.42296        2.12516        0.53154
H         -1.15506        1.28674       -1.26801
H         -1.36642       -2.51083       -0.23401
H         -4.13052       -1.96225       -0.39544
H         -5.57511        0.14188        0.41721
H         -3.66941        2.06185        1.16018
