19
12321831.log	Energy: -285122.8184003
C         -3.16678       -0.06890       -0.03853
C         -2.46856        0.91654       -0.74425
C         -1.07164        0.93449       -0.72974
C         -0.36650       -0.04066       -0.00551
C         -1.06891       -1.02781        0.70497
C         -2.46566       -1.03804        0.68556
C          1.11188       -0.03295        0.00274
C          1.81907       -1.12339       -0.41627
N          3.20059       -1.16035       -0.53867
C          1.74151        1.15732        0.45925
N          2.26260        2.11997        0.83859
H         -4.25489       -0.07890       -0.05176
H         -3.01419        1.67390       -1.30557
H         -0.52762        1.70368       -1.27652
H         -0.52682       -1.77311        1.28242
H         -3.00963       -1.80164        1.23941
H          1.28502       -2.02723       -0.75187
H          3.66159       -2.05065       -0.61062
H          3.75778       -0.42291       -0.13425
