24
12330980.log	Energy: -346514.1994356
C         -2.10724        1.92161        0.59781
C         -0.66911        2.40242        0.60485
N         -1.10608        1.33041       -0.33666
C         -0.64145       -0.01568       -0.19526
C         -1.45552       -1.08838       -0.26443
C         -2.92388       -1.05012       -0.38179
O         -3.61533       -2.01319       -0.11736
C          0.83652       -0.16517       -0.10792
C          1.39740       -0.93413        0.92321
C          2.78409       -1.08544        1.00029
C          3.61082       -0.47534        0.05087
C          3.05134        0.29097       -0.97639
C          1.66526        0.44872       -1.05871
H         -2.88956        2.52413        0.12312
H         -2.49946        1.34498        1.43900
H         -0.40007        3.35403        0.13374
H         -0.01230        2.17431        1.44779
H         -1.03613       -2.09976       -0.25486
H         -3.37180       -0.10821       -0.73837
H          0.75368       -1.41451        1.65949
H          3.22104       -1.68373        1.79870
H          4.69138       -0.60015        0.11101
H          3.69506        0.76354       -1.71752
H          1.22395        1.04123       -1.86167
