26
1236689.log	Energy: -508041.8635831
C         -4.48387       -0.90801        0.33841
C         -4.56817        0.43589       -0.02107
C         -3.37115        1.14344       -0.30189
N         -2.12873        0.53366       -0.25587
C         -2.11680       -0.77191        0.10569
C         -3.24564       -1.55072        0.41428
O         -0.92052       -1.46656        0.11816
C          0.32404       -0.84300        0.07206
C          0.62844        0.39312        0.65571
C          1.95058        0.82752        0.63095
C          2.93845        0.02287        0.03489
C          2.61674       -1.22093       -0.54321
C          1.30088       -1.66223       -0.52825
N          4.33363        0.48970        0.01264
O          4.58266        1.55762        0.55076
O          5.16062       -0.21754       -0.54174
N         -3.36665        2.50772       -0.57808
H         -5.39490       -1.46703        0.56427
H         -5.52916        0.93606       -0.06790
H         -3.14388       -2.59435        0.69148
H         -0.15257        1.01027        1.10560
H          2.23159        1.78977        1.07556
H          3.40862       -1.82519       -1.00209
H          1.01276       -2.61860       -0.96511
H         -2.50785        2.92763       -0.91008
H         -4.21527        2.93950       -0.90540
