27
12520314.log	Energy: -384011.0984139
C          4.64612       -0.01507        0.41238
C          3.82456        0.95300        0.99932
C          2.45282        0.96525        0.73396
C          1.90084        0.00549       -0.12894
C          2.72488       -0.97424       -0.70701
C          4.09490       -0.97972       -0.43712
C          0.45196        0.01806       -0.42655
C         -0.31038        1.12124       -0.58534
C         -1.73331        1.15736       -0.87856
C         -2.69346        0.46297       -0.24358
C         -4.14608        0.49401       -0.56593
C         -4.79798       -0.31104        0.30908
C         -3.81488       -0.90035        1.24366
C         -2.57624       -0.45144        0.92174
O          0.00064       -1.27119       -0.56839
H          5.71525       -0.01900        0.61984
H          4.25404        1.69840        1.66703
H          1.81432        1.71428        1.20177
H          2.28330       -1.73011       -1.35938
H          4.73343       -1.73862       -0.88695
H          0.15904        2.10732       -0.51989
H         -2.00481        1.84899       -1.68674
H         -4.54968        1.07550       -1.37188
H         -5.85035       -0.51915        0.36231
H         -4.09397       -1.56851        2.03701
H         -1.63908       -0.66137        1.40439
H         -0.96901       -1.31128       -0.80305
