22
12586187.log	Energy: -288805.8361437
C          2.97963        1.46703        0.08313
C          1.84835        0.74335        0.01443
C          0.54484        1.41618       -0.02412
C         -0.62856        0.73697       -0.01824
C         -1.92396        1.42044       -0.04604
C         -3.08231        0.72808       -0.02635
C         -3.08207       -0.72814        0.02443
C         -1.92382       -1.42052        0.04783
C         -0.62841       -0.73725        0.01994
C          0.54523       -1.41613        0.02354
C          1.84851       -0.74302       -0.01520
C          2.97961       -1.46698       -0.08325
H          3.96669        1.03066        0.12490
H          2.99485        2.54610        0.10416
H          0.56513        2.50604       -0.05154
H         -1.90764        2.50919       -0.08238
H         -4.05012        1.22688       -0.04638
H         -4.05000       -1.22677        0.04310
H         -1.90789       -2.50918        0.08667
H          0.56547       -2.50607        0.04982
H          2.99457       -2.54609       -0.10367
H          3.96674       -1.03088       -0.12530
