25
12581254.log	Energy: -503057.8547291
C          3.42027       -1.07527       -0.57592
C          2.02569       -1.10009       -0.57799
C          1.30458       -0.04784        0.01112
C          1.98295        1.04204        0.58077
C          3.37809        1.07514        0.57576
C          4.09593        0.01484       -0.00120
C          5.52981        0.05247       -0.01659
N          6.68511        0.08672       -0.03381
C         -0.17550       -0.08626        0.02680
N         -0.84446        1.01941       -0.25298
C         -2.22853        0.94162       -0.22824
N         -3.22696        1.82936       -0.44630
N         -4.41544        1.22564       -0.29092
C         -4.26206       -0.10818        0.03163
N         -2.86348       -0.35905        0.10190
N         -2.16901       -1.47864        0.40725
C         -0.85521       -1.35094        0.36972
N         -5.25411       -1.07815        0.12612
H          3.98416       -1.89200       -1.03057
H          1.50331       -1.93222       -1.05163
H          1.41538        1.87018        1.01594
H          3.90813        1.92410        1.01271
H         -0.25760       -2.23860        0.62307
H         -6.19318       -0.71209        0.26949
H         -5.03794       -1.88163        0.70703
