26
12605.log	Energy: -425487.1678636
C         -4.24508       -0.39648        0.00302
C         -4.02356        1.02775        0.01473
C         -2.76512        1.54692        0.01543
C         -1.62195        0.66077        0.00387
C         -1.84451       -0.77020       -0.00479
C         -3.20160       -1.27038       -0.00703
N         -0.80071       -1.64155       -0.01022
C          0.45298       -1.12369       -0.00642
C          1.58994       -2.01963       -0.00285
C          2.85220       -1.52154        0.00355
C          3.10047       -0.09081       -0.00107
C          2.03942        0.80925       -0.00933
C          0.68370        0.30787       -0.00158
N         -0.36490        1.17884        0.00536
N          2.32775        2.22505       -0.08931
N          4.43712        0.34401        0.10226
H         -5.27570       -0.75162        0.00326
H         -4.89908        1.67817        0.02453
H         -2.57347        2.62099        0.02458
H         -3.34175       -2.35297       -0.01551
H          1.38583       -3.09334       -0.00336
H          3.71463       -2.18988        0.02064
H          2.38633        2.62155        0.85000
H          1.57183        2.71740       -0.57056
H          5.13627       -0.27140       -0.28842
H          4.59895        1.31756       -0.14688
