23
12756203.log	Energy: -400949.0846780
C          3.88698       -0.09996       -0.00094
C          3.21426        0.17022       -1.19745
C          1.83597        0.39705       -1.19235
C          1.13282        0.35638        0.01998
C          1.80300        0.08986        1.22214
C          3.18164       -0.13841        1.20669
C         -0.33304        0.61337        0.02618
C         -0.81704        1.87151        0.06513
C         -2.18479        2.26121        0.05842
N         -3.28078        2.63200        0.05038
N         -1.12337       -0.57825       -0.02045
C         -0.67184       -1.93447       -0.08866
N         -1.74193       -2.73878       -0.10230
C         -2.86047       -1.87343       -0.04095
N         -2.49698       -0.57083        0.00918
H          4.96257       -0.27821       -0.00869
H          3.76616        0.20318       -2.13719
H          1.31027        0.60742       -2.12467
H          1.25240        0.06407        2.16323
H          3.70745       -0.34572        2.13894
H         -0.11290        2.71894        0.10344
H          0.37078       -2.21936       -0.12604
H         -3.88023       -2.23937       -0.03593
