24
12756195.log	Energy: -390922.4510276
C          3.09505       -1.72378        0.00068
C          2.57039       -1.25320       -1.20771
C          1.42097       -0.45913       -1.21164
C          0.79553       -0.14198        0.00234
C          1.31651       -0.61376        1.21568
C          2.46789       -1.40513        1.20974
C         -0.41304        0.72374        0.00546
C         -0.35189        2.07511        0.02115
C          0.88391        2.77667        0.03286
N          1.88029        3.36533        0.04076
N         -1.65212        0.02634       -0.00830
C         -2.95357        0.59517        0.02453
C         -3.84235       -0.46686       -0.00525
N         -3.14156       -1.68696       -0.05776
C         -1.83776       -1.39111       -0.05969
H          3.99630       -2.33719        0.00015
H          3.06226       -1.49989       -2.14871
H          1.01669       -0.08375       -2.15200
H          0.83046       -0.35949        2.15781
H          2.88001       -1.77013        2.15063
H         -1.24259        2.71311        0.02505
H         -3.12798        1.65288        0.06437
H         -4.91980       -0.45437        0.00598
H         -1.01146       -2.08866       -0.09517
