21
1282460.log	Energy: -340448.3338072
C         -3.74465       -0.14700        0.08149
C         -3.03524        1.23049        0.26095
N         -1.57795        0.95830        0.16702
C         -1.40934       -0.32331       -0.06994
N         -2.62558       -1.13690       -0.08939
N         -0.19566       -1.01189       -0.31064
C          1.07371       -0.40343       -0.10095
N          2.07134       -1.28688        0.22035
C          3.33226       -0.79312        0.30348
C          3.60285        0.57080        0.07944
N          2.61045        1.45176       -0.21905
C          1.35064        0.98262       -0.30694
H         -4.45035       -0.15100       -0.76690
H         -4.30686       -0.43480        0.99459
H         -3.32489        1.96777       -0.51407
H         -3.25597        1.68451        1.24861
H         -2.73224       -1.74341       -0.90438
H         -0.21866       -2.02340       -0.09208
H          4.12042       -1.51026        0.55952
H          4.61628        0.97831        0.14116
H          0.55261        1.70922       -0.52965
