17
128646.log	Energy: -356398.6831214
C         -0.28900        2.20043       -0.41575
C         -1.44900        1.51324       -0.37154
C         -1.71606        0.18377        0.17199
O         -2.72333       -0.11693        0.76609
C         -0.65769       -0.88550       -0.08153
C          0.68969       -0.71218       -0.08741
C          1.44738        0.50598        0.13777
C          1.02579        1.78761       -0.01033
O          2.76170        0.32826        0.48094
O          1.48104       -1.86837       -0.19702
O         -1.22452       -2.09457       -0.28978
H         -0.32779        3.23813       -0.78947
H         -2.37388        2.00790       -0.70167
H          1.75256        2.58893        0.17134
H          2.96466       -0.64320        0.65658
H          1.84000       -1.92029       -1.12413
H         -0.52136       -2.81882       -0.35373
