29
12946084.log	Energy: -418569.5090409
C          4.05988       -0.56416        0.37816
C          3.17127       -0.49521        1.45637
C          1.85305       -0.07854        1.25437
C          1.42541        0.27773       -0.03334
C          2.31710        0.21669       -1.11419
C          3.63232       -0.20649       -0.90438
C          0.02481        0.72412       -0.24430
C         -0.26724        2.00935       -0.48648
C         -1.65737        2.55433       -0.67123
O         -2.22884        2.89059        0.59884
C         -0.98256       -0.36505       -0.15545
C         -0.87762       -1.51001       -0.97232
C         -1.83318       -2.51831       -0.84062
C         -2.86476       -2.37342        0.09271
C         -2.90813       -1.20517        0.86879
N         -1.98717       -0.21259        0.75449
H          5.08524       -0.89237        0.53828
H          3.50568       -0.76856        2.45617
H          1.15639       -0.02500        2.09111
H          1.98530        0.50106       -2.11072
H          4.32615       -0.25450       -1.74212
H          0.52698        2.75980       -0.52564
H         -1.65907        3.52318       -1.20776
H         -2.32662        1.84404       -1.19282
H         -2.26618        2.08060        1.17101
H         -0.05981       -1.59908       -1.68476
H         -1.77407       -3.41382       -1.46003
H         -3.61880       -3.14686        0.21511
H         -3.69807       -1.04023        1.61142
