25
13082332.log	Energy: -665999.8959514
C         -4.59875       -0.89134       -0.16216
C         -4.12494        0.22437       -0.86106
C         -2.77820        0.58313       -0.77956
C         -1.89738       -0.18735       -0.00279
C         -2.37206       -1.30458        0.70130
C         -3.72310       -1.65166        0.61950
C         -0.46803        0.18291        0.06418
C          0.51941       -0.67689       -0.24057
C          1.93348       -0.36110       -0.20465
N          2.50513        0.82769       -0.23485
C          3.91011        0.73871       -0.18019
C          4.41912       -0.52797       -0.11108
S          3.12350       -1.67967       -0.11126
C         -0.20517        1.58400        0.52291
O          0.07569        1.98547        1.62369
O         -0.39726        2.46087       -0.52001
H         -5.65093       -1.16548       -0.22440
H         -4.80817        0.81757       -1.46796
H         -2.40146        1.45699       -1.31854
H         -1.69314       -1.89166        1.31845
H         -4.09448       -2.51600        1.16870
H          0.27027       -1.70184       -0.55120
H          4.47000        1.67065       -0.19577
H          5.45085       -0.83159       -0.05969
H         -0.16909        3.39820       -0.26998
