25
13120047.log	Energy: -452974.4139478
C          4.04269       -0.20711       -0.11005
C          3.24665        0.64178       -0.88670
C          1.85498        0.59142       -0.77978
C          1.25901       -0.32052        0.10361
C          2.05424       -1.17717        0.87802
C          3.44625       -1.11452        0.77139
C         -0.22171       -0.38253        0.21449
C         -0.89088       -1.42440       -0.30526
C         -2.33133       -1.68419       -0.29581
O         -2.91696       -2.66107       -0.70422
O         -3.08038       -0.66137        0.26600
C         -0.85515        0.76403        0.94996
C         -1.15109        1.92897        0.05518
O         -0.81354        2.16462       -1.07987
O         -1.92375        2.83784        0.74309
H          5.12786       -0.16301       -0.19375
H          3.71152        1.34439       -1.57773
H          1.22698        1.25261       -1.38727
H          1.58954       -1.88998        1.55789
H          4.06653       -1.77707        1.37358
H         -0.34000       -2.22151       -0.83141
H         -4.05562       -0.86112        0.24868
H         -1.81072        0.44123        1.45189
H         -0.20484        1.10362        1.79221
H         -2.15615        3.63613        0.19560
