24
13161259.log	Energy: -242679.6007986
C          1.82317       -1.11194       -0.37584
C          2.42944        0.28080       -0.03612
C          1.37944        1.26842       -0.42795
C          0.50463        1.81471        0.43579
C         -0.87564        1.80858       -0.07455
C         -1.65499        0.89796        0.53928
C         -2.47064       -0.09733       -0.22138
C         -1.42958       -1.16848       -0.67887
C         -0.55816       -1.62199        0.46003
C          0.77275       -1.56696        0.59682
H          2.64180       -1.86059       -0.39083
H          1.41950       -1.09647       -1.40858
H          2.69203        0.33932        1.03577
H          3.37113        0.42754       -0.59551
H          1.19948        1.31373       -1.50534
H          0.68380        1.93938        1.49717
H         -1.08547        2.23533       -1.04823
H         -1.49058        0.63379        1.58681
H         -3.25742       -0.55827        0.40079
H         -2.97895        0.33342       -1.10168
H         -1.96372       -2.03947       -1.10539
H         -0.81656       -0.74532       -1.49906
H         -1.14673       -2.02966        1.29080
H          1.20918       -1.91537        1.54002
