27
13287597.log	Energy: -430851.7116574
C         -4.60536        0.72639        0.00228
C         -3.44471        1.41900        0.00148
C         -2.15423        0.73332       -0.00059
C         -0.97216        1.41600       -0.00122
C          0.30573        0.73189       -0.00168
C          1.49025        1.43954       -0.00199
C          2.72238        0.73220       -0.00071
C          4.05373        1.11885        0.00055
O          4.87327       -0.00042        0.00208
C          4.05327       -1.11928        0.00173
C          2.72216       -0.73220        0.00001
C          1.48997       -1.43919       -0.00062
C          0.30560       -0.73129       -0.00116
C         -0.97215       -1.41540       -0.00112
C         -2.15415       -0.73276       -0.00098
C         -3.44420       -1.41909       -0.00052
C         -4.60535       -0.72727        0.00110
H         -5.57192        1.22795        0.00391
H         -3.42923        2.50833        0.00234
H         -0.95493        2.50590       -0.00116
H          1.50635        2.52703       -0.00293
H          4.58417        2.04210        0.00077
H          4.58352       -2.04260        0.00297
H          1.50580       -2.52672       -0.00042
H         -0.95489       -2.50534       -0.00112
H         -3.42802       -2.50838       -0.00172
H         -5.57172       -1.22929        0.00142
