27
13287599.log	Energy: -633330.3754425
C         -4.95623        0.72566        0.00585
C         -3.79510        1.41864        0.00339
C         -2.50574        0.73222       -0.00175
C         -1.32129        1.41559       -0.00440
C         -0.04853        0.72869       -0.00488
C          1.14547        1.42788       -0.00384
C          2.38317        0.73029       -0.00033
C          3.67354        1.25629        0.00103
S          4.80678       -0.00055        0.00334
C          3.67300       -1.25645        0.00290
C          2.38282       -0.73005        0.00067
C          1.14504       -1.42729       -0.00163
C         -0.04863       -0.72776       -0.00398
C         -1.32122       -1.41470       -0.00445
C         -2.50563       -0.73144       -0.00255
C         -3.79427       -1.41876       -0.00008
C         -4.95616       -0.72719        0.00436
H         -5.92242        1.22786        0.00938
H         -3.77954        2.50793        0.00403
H         -1.30380        2.50535       -0.00606
H          1.15958        2.51608       -0.00559
H          3.94066        2.29774        0.00152
H          3.93974       -2.29815        0.00396
H          1.15895       -2.51542       -0.00087
H         -1.30350       -2.50451       -0.00570
H         -3.77759       -2.50802       -0.00233
H         -5.92206       -1.22982        0.00624
