29
13601712.log	Energy: -465363.3658798
C          4.80456       -0.32343        0.21467
C          4.16940       -0.67487       -0.98150
C          2.77955       -0.78712       -1.03939
C          2.02429       -0.54127        0.12179
C          2.65373       -0.18442        1.32854
C          4.04550       -0.07919        1.36337
N          0.61983       -0.80085        0.11518
C         -0.30896        0.05636       -0.12191
C         -0.09859        1.54045       -0.45267
O          0.87462        1.91525       -1.06083
C         -1.16586        2.44928        0.02307
C         -2.39474        1.99437        0.30697
C         -2.74176        0.57280        0.17793
C         -4.07897        0.15864        0.27074
C         -4.40803       -1.19196        0.12827
C         -3.40581       -2.13813       -0.10380
C         -2.06879       -1.73908       -0.19055
C         -1.72785       -0.38641       -0.05172
H          5.88818       -0.23703        0.24941
H          4.76214       -0.85899       -1.87707
H          2.28320       -1.05313       -1.97035
H          2.06343       -0.00103        2.22303
H          4.54085        0.19730        2.29354
H         -0.88623        3.50142        0.08939
H         -3.19160        2.66817        0.63413
H         -4.86525        0.89069        0.45223
H         -5.44904       -1.50696        0.19878
H         -3.66430       -3.19121       -0.21546
H         -1.28321       -2.48137       -0.36012
