27
136051.log	Energy: -430836.1813515
C         -4.63728        0.04633        0.00609
C         -4.12964        1.34612        0.00685
C         -2.74241        1.58083       -0.00040
C         -1.89093        0.48938       -0.00352
C         -2.41397       -0.85507       -0.00152
C         -3.78372       -1.07138        0.00208
C         -1.29643       -1.81264       -0.00308
C         -0.15721       -1.07333       -0.00480
C         -0.42615        0.39427       -0.00604
C          0.58296        1.28285       -0.00710
C          1.94318        0.76158       -0.00372
C          3.08173        1.59337       -0.00117
C          4.35896        1.04429        0.00421
C          4.53815       -0.35187        0.00746
C          3.44172       -1.20527        0.00462
C          2.15732       -0.63417       -0.00096
O          1.12682       -1.57633       -0.00303
H         -5.71531       -0.11107        0.01009
H         -4.81255        2.19320        0.01152
H         -2.35506        2.59630       -0.00196
H         -4.19188       -2.07850        0.00148
H         -1.41039       -2.87767       -0.00252
H          0.43225        2.36020       -0.00941
H          2.95029        2.67608       -0.00338
H          5.23184        1.69534        0.00566
H          5.54722       -0.76617        0.01185
H          3.55132       -2.28868        0.00695
