23
136238.log	Energy: -526041.0895182
C          3.68645        0.99215       -0.00227
C          3.81938       -0.43718        0.00251
C          2.70583       -1.22919        0.00401
C          1.39902       -0.63847        0.00133
C          1.24654        0.77318       -0.00090
C          2.45554        1.57668       -0.00345
C          0.00014        1.41844       -0.00020
C         -1.24676        0.77311       -0.00031
C         -2.45556        1.57654        0.00282
C         -3.68672        0.99203        0.00353
C         -3.81953       -0.43733       -0.00065
C         -2.70574       -1.22891       -0.00360
C         -1.39899       -0.63857       -0.00236
P          0.00018       -1.70730       -0.00054
H          4.59561        1.59311       -0.00374
H          4.81951       -0.86420        0.00486
H          2.81322       -2.31702        0.00795
H          2.34856        2.66002       -0.00658
H         -0.00009        2.51163        0.00004
H         -2.34861        2.65981        0.00480
H         -4.59597        1.59293        0.00690
H         -4.81946       -0.86466       -0.00153
H         -2.81295       -2.31693       -0.00727
