27
13731.log	Energy: -511018.4479213
C         -4.49056       -1.30889        0.47046
C         -4.87807        0.02122        0.18015
C         -3.93235        0.98711       -0.11473
C         -2.57157        0.60788       -0.11029
C         -2.15589       -0.70793        0.17870
C         -3.15490       -1.66931        0.47131
C         -0.74499       -1.00035        0.16150
C          0.16414       -0.03095       -0.12408
C         -0.25777        1.34432       -0.41218
O          0.36814        2.33455       -0.66355
O         -1.67446        1.59594       -0.40011
C          1.61230       -0.31199       -0.15304
C          2.49664        0.53350        0.52560
N          3.86155        0.27807        0.54178
C          4.34562       -0.83691       -0.13807
C          3.47897       -1.68024       -0.82606
C          2.10496       -1.43294       -0.84051
O          4.63743        1.02306        1.16071
H         -5.26002       -2.04678        0.69462
H         -5.93914        0.28008        0.18859
H         -4.19969        2.01829       -0.34505
H         -2.85619       -2.69382        0.69666
H         -0.42829       -2.02364        0.38985
H          2.15504        1.43628        1.04801
H          5.42628       -1.00390       -0.10473
H          3.88913       -2.54227       -1.35763
H          1.43393       -2.08620       -1.39173
