30
137459.log	Energy: -441940.8498892
C         -3.62229       -1.23837        0.22862
C         -2.28117       -0.62335        0.06108
C         -2.07001        0.70231       -0.05075
C         -0.69537        1.24780       -0.24951
O         -0.48619        2.33740       -0.73504
C          0.45958        0.32504        0.16365
C          0.21132       -1.01617        0.19001
C         -1.11430       -1.59435        0.02305
O         -1.30537       -2.78596       -0.12065
N          1.65892        0.89344        0.54066
C          1.98986        2.28945        0.16484
C          2.83052        0.03082        0.83815
C          3.50243       -0.56137       -0.41612
O          3.17515       -1.94322       -0.55375
C         -3.15704        1.72108       -0.02166
H         -4.32047       -0.92270       -0.56042
H         -4.07260       -0.96402        1.19394
H         -3.57225       -2.34278        0.19113
H          0.99676       -1.75481        0.37125
H          2.97735        2.57844        0.55542
H          1.98158        2.44343       -0.92964
H          1.24269        2.98734        0.59234
H          3.56308        0.62466        1.42917
H          2.51290       -0.80414        1.51268
H          3.23429       -0.01722       -1.33869
H          4.60533       -0.58420       -0.31108
H          2.21283       -2.05681       -0.76457
H         -3.54897        1.85425        0.99737
H         -2.81068        2.70712       -0.37413
H         -4.00406        1.43436       -0.66205
