24
139143.log	Energy: -393342.7690869
C          3.65443       -0.88912        0.00138
C          3.63782        0.54729        0.00026
C          2.45335        1.22123       -0.00155
C          1.20918        0.49369       -0.00095
C          1.21242       -0.93646       -0.00005
C          2.49261       -1.60350        0.00116
C          0.00024       -1.63713       -0.00043
C         -1.21244       -0.93681       -0.00109
C         -2.49232       -1.60355       -0.00117
C         -3.65426       -0.88934        0.00002
C         -3.63777        0.54695        0.00143
C         -2.45318        1.22099        0.00090
C         -1.20908        0.49323       -0.00008
N          0.00024        1.19866       -0.00021
O         -0.00106        2.44393        0.00013
H          4.62300       -1.39135        0.00202
H          4.58864        1.07812       -0.00011
H          2.39859        2.31517       -0.00345
H          2.49701       -2.69252        0.00161
H          0.00102       -2.72479        0.00011
H         -2.49742       -2.69269       -0.00284
H         -4.62262       -1.39107       -0.00015
H         -4.58857        1.07739        0.00308
H         -2.39873        2.31489        0.00112
