27
1403696.log	Energy: -523666.2940875
C         -3.44343       -2.06239        0.05954
O         -2.95945       -0.69756       -0.06791
C         -1.61094       -0.47607       -0.01417
C         -1.26105        0.84925        0.00849
C          0.15925        1.28569        0.01901
O          0.48673        2.47133        0.03825
C          1.18169        0.23374        0.00827
C          0.84483       -1.14410       -0.00834
C         -0.59701       -1.57261       -0.00207
O         -0.90095       -2.74692        0.01043
C          1.82637       -2.11598       -0.02749
C          3.19775       -1.74638       -0.02773
C          3.56523       -0.42106       -0.00667
C          2.54786        0.57862        0.00984
O          2.99859        1.84539        0.02452
O         -2.32541        1.71105        0.02396
C         -2.05827        3.13740       -0.05597
H         -4.52822       -1.89938        0.03200
H         -3.12291       -2.49880        1.00951
H         -3.10212       -2.66928       -0.78518
H          1.54997       -3.17438       -0.04143
H          3.95693       -2.53203       -0.04337
H          4.60777       -0.10090       -0.00349
H          2.22772        2.54613        0.04009
H         -1.48544        3.46937        0.81543
H         -1.53367        3.37836       -0.98461
H         -3.07974        3.53807       -0.04915
