27
140677.log	Energy: -441005.3775843
C          4.62223        0.43559        0.54316
C          3.92314        1.32038       -0.28486
C          2.62059        1.02727       -0.69491
C          2.02303       -0.16607       -0.25649
C          2.71480       -1.06130        0.57214
C          4.01804       -0.75235        0.96742
N          0.68358       -0.46863       -0.75900
C         -0.36985        0.35761       -0.30323
C         -1.68115        0.06051       -0.10021
C         -2.27657       -1.26580       -0.09393
C         -3.59748       -1.45477        0.12174
C         -4.48328       -0.32645        0.35868
C         -4.01461        0.93643        0.37492
C         -2.58752        1.23112        0.15300
O         -2.14550        2.36926        0.17045
O          0.41700       -1.85434       -0.59693
H          5.63744        0.67236        0.85765
H          4.39563        2.24563       -0.61574
H          2.08376        1.71214       -1.35079
H          2.23413       -1.98456        0.90006
H          4.56311       -1.44124        1.61308
H         -0.05891        1.42741       -0.22921
H         -1.60382       -2.11210       -0.26376
H         -4.03840       -2.44896        0.12826
H         -5.54013       -0.54544        0.52344
H         -4.64741        1.80524        0.55043
H          0.54935       -2.22245       -1.53319
