26
141321.log	Energy: -427876.1377236
C         -4.65614        0.72133        0.01079
C         -3.28201        0.13884       -0.00661
C         -2.17109        0.93866       -0.00541
C         -0.85911        0.35476       -0.00325
N          0.27962        1.17181       -0.00366
C          1.53266        0.55033       -0.00141
C          2.73763        1.33829        0.00133
C          3.95324        0.72204        0.00353
C          4.04589       -0.71271        0.00401
C          2.92847       -1.49271        0.00150
C          1.61672       -0.88544       -0.00088
N          0.51330       -1.68248       -0.00110
C         -0.70560       -1.07223       -0.00205
C         -1.90239       -1.88226       -0.00121
C         -3.13219       -1.29768       -0.00359
O          0.17881        2.40634       -0.00318
H         -5.42360        0.01115       -0.32366
H         -4.73719        1.60550       -0.63835
H         -4.93212        1.04209        1.02743
H         -2.23827        2.03087       -0.00469
H          2.62859        2.42761        0.00153
H          4.87673        1.29979        0.00558
H          5.04138       -1.16101        0.00719
H          2.97423       -2.58378        0.00266
H         -1.77030       -2.96705        0.00277
H         -4.03694       -1.90872       -0.00217
