28
142316.log	Energy: -384350.2303273
C         -1.51699       -1.30115       -0.72620
C         -0.98899       -2.32512       -0.03602
C          0.35039       -2.68608       -0.57365
C          1.32133       -2.01334        0.10138
C          2.27394       -1.12976       -0.64143
C          2.25481        0.05740        0.05182
C          2.54796        1.36107       -0.55270
C          1.74401        2.43571       -0.47441
C          0.50866        2.69242        0.28274
C         -0.73945        2.20066        0.05500
C         -0.88724        0.95429       -0.65348
C         -4.48261        0.61641        0.13717
C         -3.30929        0.32962        0.05493
C         -1.90960       -0.01238       -0.04324
C          1.11935       -1.38786        1.44093
C          1.65988       -0.13735        1.38476
H         -1.38359       -1.20821       -1.81021
H         -1.24710       -2.58726        0.98694
H          0.45542       -3.17356       -1.53953
H          2.68332       -1.36453       -1.60884
H          3.47250        1.39170       -1.15074
H          2.04005        3.34332       -1.03576
H          0.64295        3.49893        1.02321
H         -1.60478        2.67939        0.53022
H         -5.47151        0.87340        0.28997
H         -1.58096       -0.10217        1.05567
H          0.63382       -1.88975        2.25395
H          1.68297        0.61140        2.15944
