26
143466.log	Energy: -550529.3635291
C          0.02266        2.74063        0.00069
C         -0.00094        1.23752       -0.00371
C          1.25091        0.56888       -0.00085
C          2.48921        1.32973        0.00375
C          3.70879        0.71991        0.00334
C          3.81467       -0.70923       -0.00005
C          2.67970       -1.46860       -0.00215
C          1.38805       -0.84365       -0.00178
P         -0.00512       -1.91892       -0.00137
C         -1.39277       -0.84020       -0.00037
C         -2.68759       -1.46067        0.00342
C         -3.82038       -0.69890        0.00468
C         -3.71189        0.73110       -0.00040
C         -2.49074        1.33412       -0.00372
C         -1.25194        0.57327       -0.00268
H         -0.97411        3.19417       -0.11431
H          0.63405        3.13570       -0.82316
H          0.43286        3.12307        0.94666
H          2.43498        2.41751        0.00696
H          4.62819        1.30495        0.00573
H          4.80392       -1.16041       -0.00097
H          2.75769       -2.55926       -0.00438
H         -2.76855       -2.55125        0.00638
H         -4.81067       -1.14762        0.00822
H         -4.62968        1.31788       -0.00212
H         -2.41827        2.42563       -0.00941
