19
144109.log	Energy: -274345.5085801
C         -2.58963       -1.06270        0.10413
N         -1.77111        0.18287        0.03813
C         -0.47687        0.09725       -0.24914
C          0.24862       -1.13381       -0.60317
C          1.18424       -1.51756        0.32886
C          2.42184       -0.84345       -0.10037
C          2.35058        0.33405        0.60436
C          1.69623        1.46282       -0.08070
C          0.37906        1.31852       -0.37078
O         -2.37249        1.24589        0.28579
H         -2.29785       -1.68088        0.96926
H         -2.46537       -1.67094       -0.80775
H         -3.65894       -0.80094        0.21430
H          0.38742       -1.28820       -1.67107
H          0.97320       -1.70405        1.37587
H          2.82347       -0.95685       -1.09798
H          2.27584        0.36130        1.69260
H          2.23852        2.38382       -0.26718
H         -0.18305        2.17883       -0.76037
