20
145625.log	Energy: -241241.3462317
C          2.44240       -1.45753        0.07089
C          1.30314       -0.74927        0.00481
C          0.00807       -1.46797       -0.04542
C         -1.10710       -0.73979       -0.02677
C         -2.61404       -0.78495       -0.03435
C         -2.61368        0.78541        0.03463
C         -1.10632        0.73914        0.02851
C          0.00821        1.46812        0.04330
C          1.30327        0.74919       -0.00595
C          2.44254        1.45737       -0.06964
H          2.47105       -2.53629        0.07987
H          3.42438       -1.01155        0.12231
H          0.03048       -2.55196       -0.08661
H         -3.05882       -1.20254       -0.94536
H         -3.06779       -1.28124        0.83106
H         -3.05986        1.20140        0.94568
H         -3.06556        1.28425       -0.83021
H          0.03059        2.55212        0.08073
H          2.47177        2.53608       -0.07695
H          3.42478        1.01146       -0.12059
