23
146268.log	Energy: -709193.9335562
C          2.34483        2.11834       -0.02669
C          1.47552        1.03790       -0.01354
O          2.19172       -0.16656        0.00281
C          3.54266        0.22010       -0.00026
C          3.67190        1.59478       -0.01978
N          4.49327       -0.87660        0.01601
O          5.67420       -0.56867       -0.02971
O          4.05527       -2.01009        0.07449
C          0.03592        0.92152       -0.01156
C         -0.61606       -0.25388       -0.00376
C         -2.07416       -0.36770       -0.00093
C         -2.77178       -1.54740       -0.04222
S         -4.48007       -1.24510       -0.03265
C         -4.16069        0.51647        0.04302
N         -2.86319        0.80956        0.06121
N         -5.20341        1.41866       -0.03494
H          2.08107        3.16059       -0.04158
H          4.59038        2.16094       -0.02751
H         -0.50861        1.87878       -0.01633
H         -0.07437       -1.20926       -0.00062
H         -2.38127       -2.54977       -0.07903
H         -6.09727        1.14404        0.34887
H         -4.97387        2.39666        0.11622
