26
146301.log	Energy: -425512.3099617
C         -3.29822        1.60631        0.01084
C         -3.67861        0.23178        0.03460
C         -2.72747       -0.77085        0.00880
C         -1.30445       -0.40688        0.00443
C         -0.95293        0.99759       -0.02254
C         -1.98955        1.99445       -0.02442
N          0.35619        1.37462       -0.03272
C          1.30472        0.40633       -0.00445
C          0.95268       -0.99842        0.02164
N         -0.35582       -1.37592        0.03260
C          1.99033       -1.99526        0.02338
C          3.29853       -1.60594       -0.01127
C          3.67803       -0.23094       -0.03420
C          2.72772        0.77167       -0.00823
N          3.08228        2.11873        0.09581
N         -3.08317       -2.11768       -0.09400
H         -4.09635        2.35157        0.01810
H         -4.73842       -0.00710        0.05169
H         -1.69098        3.04098       -0.04823
H          1.69216       -3.04181        0.04648
H          4.09712       -2.35084       -0.02005
H          4.73801        0.00788       -0.05200
H          2.36107        2.81177       -0.06574
H          4.00258        2.39274       -0.20624
H         -2.36246       -2.81155        0.06547
H         -4.00382       -2.39098        0.20716
