21
146491.log	Energy: -378989.7697244
C         -0.89366        2.28010       -0.03605
C         -1.88450        1.36484       -0.04381
C         -1.60438       -0.07667       -0.00214
N         -2.51402       -1.02732        0.01912
O         -3.81941       -0.54868        0.00209
C         -0.18585       -0.50901        0.02823
C          0.19732       -1.81680       -0.02194
C          1.59573       -2.17447       -0.06014
C          2.54835       -1.20809       -0.01886
N          2.17504        0.12740        0.28454
C          0.82139        0.56657        0.06558
C          0.49903        1.88681        0.00767
O          3.13949        1.03317       -0.22471
H         -1.10556        3.34999       -0.06930
H         -2.93890        1.64430       -0.07948
H         -4.36290       -1.40485        0.03007
H         -0.53839       -2.62660       -0.06011
H          1.85993       -3.22752       -0.13792
H          3.62272       -1.38955       -0.11557
H          1.25600        2.66517       -0.02196
H          3.45866        1.53295        0.59831
