31
14642924.log	Energy: -463609.0609762
C          4.61588       -0.82234       -0.33576
C          4.26249       -1.06195        0.94800
C          2.86682       -1.48596        1.10908
C          2.02048       -0.59332        0.54846
C          0.55741       -0.59614        0.57432
C          0.12951        0.54008       -0.06341
N          1.25722        1.33794       -0.54874
C          2.36776        0.70320       -0.21597
C          3.67634        1.28212       -0.60238
C          4.83234        0.58980       -0.68138
N         -1.14318        1.08697       -0.22936
C         -2.30415        0.22804       -0.26095
C         -2.28057       -1.04113       -0.85325
C         -3.42601       -1.83900       -0.85725
C         -4.60718       -1.36823       -0.27548
C         -4.65113       -0.10867        0.31985
C         -3.50274        0.70917        0.34104
N         -3.58264        2.02494        0.86266
H          4.31858       -1.47287       -1.16016
H          4.75195       -0.61862        1.81171
H          2.56787       -2.36168        1.66743
H         -0.03171       -1.35928        1.03808
H          3.62510        2.34443       -0.86547
H          5.79052        0.99286       -0.97723
H         -1.20159        1.89915       -0.85769
H         -1.36048       -1.40835       -1.31189
H         -3.39828       -2.82399       -1.31727
H         -5.50207       -1.99011       -0.28453
H         -5.57706        0.24629        0.76648
H         -4.33718        2.18234        1.51794
H         -2.70894        2.40674        1.21121
