30
147133.log	Energy: -509479.8400566
C          4.15197       -1.36912       -0.25879
O          2.72124       -1.38346       -0.02734
C          2.03902       -0.19341       -0.04900
C          0.65763       -0.32418        0.13143
C         -0.14335        0.83907        0.14363
C          0.50294        2.11166       -0.04638
C          1.89365        2.22959       -0.23076
C          2.65453        1.07753       -0.22960
N         -0.49537        3.10222       -0.00411
C         -1.72904        2.47597        0.21020
C         -1.55014        1.09638        0.30571
C         -2.62200        0.09851        0.54102
C         -3.04437       -0.58943       -0.77183
N         -4.06762       -1.63343       -0.46680
N          0.01926       -1.64590        0.30847
O         -0.16142       -2.03948        1.44547
O         -0.32146       -2.24484       -0.69692
H          4.38682       -2.44243       -0.20177
H          4.65956       -0.81552        0.53610
H          4.37440       -0.97300       -1.25332
H          2.35357        3.20674       -0.36996
H          3.73137        1.13982       -0.36496
H         -0.33966        4.08673       -0.09086
H         -2.64728        3.03682        0.28058
H         -2.29151       -0.65663        1.28846
H         -3.51434        0.57191        1.00526
H         -3.50816        0.15622       -1.45402
H         -2.14949       -0.99156       -1.29987
H         -4.34755       -2.10442       -1.32277
H         -3.67355       -2.34824        0.14076
