32
147165.log	Energy: -453663.0692648
C         -0.80729        2.15345        0.00626
C          0.37323        1.26745       -0.00898
C          1.69965        1.61487       -0.01071
C          2.54477        0.38629       -0.00822
C          3.91430        0.20687        0.00033
C          4.41230       -1.11491        0.00575
C          3.55197       -2.20756        0.00483
C          2.15121       -2.02886        0.00091
C          1.66254       -0.73845       -0.00490
C          0.25227       -0.22432       -0.00254
N         -0.75103       -1.02735       -0.00162
C         -2.12391       -0.64930       -0.00088
C         -2.81233       -0.52448        1.22151
C         -4.18738       -0.28925        1.21112
C         -4.87931       -0.17243        0.00075
C         -4.18952       -0.29762       -1.20984
C         -2.81443       -0.53306       -1.22296
N          2.25686        2.89497        0.07376
H         -1.44883        1.98202       -0.87301
H         -0.54512        3.21756        0.02192
H         -1.43167        1.96498        0.89575
H          4.60250        1.04751        0.01119
H          5.49057       -1.27138        0.01271
H          3.95569       -3.21961        0.00921
H          1.47428       -2.88420        0.00363
H         -2.27332       -0.62432        2.16132
H         -4.72483       -0.19755        2.15436
H         -5.95068        0.00994        0.00095
H         -4.72964       -0.21206       -2.15201
H         -2.27923       -0.64247       -2.16319
H          3.18548        3.00294       -0.30733
H          1.64562        3.66105       -0.17505
