26
147195.log	Energy: -425510.9021386
C         -3.56578       -1.49864       -0.02902
C         -3.84589       -0.10358       -0.02789
C         -2.81940        0.82543        0.00776
C         -1.43010        0.35951       -0.00096
C         -1.18027       -1.06988        0.00541
C         -2.28665       -1.98293       -0.00812
N          0.09775       -1.54970        0.01301
C          1.12314       -0.65453        0.00588
C          2.47995       -1.10883        0.01231
C          3.51243       -0.19479       -0.00029
C          3.24559        1.23581       -0.03626
C          1.97007        1.69868       -0.04449
C          0.85366        0.77492       -0.02267
N         -0.41085        1.25591       -0.02606
N          4.85032       -0.60910        0.09690
N         -3.07719        2.19061        0.12139
H         -4.41422       -2.18661       -0.04506
H         -4.88394        0.21419       -0.03535
H         -2.06695       -3.04966       -0.00262
H          2.65087       -2.18404        0.04086
H          4.09147        1.92165       -0.03972
H          1.74013        2.76673       -0.06448
H          5.05553       -1.58026       -0.08417
H          5.56834        0.02235       -0.21883
H         -2.31520        2.83993       -0.02159
H         -3.98657        2.53463       -0.13571
