23
1478181.log	Energy: -626628.1759191
C         -3.50565        1.46108        0.02382
N         -2.09462        1.01245       -0.01339
C         -1.09611        1.97647       -0.05870
C          0.22672        1.62156       -0.07265
C          0.56486        0.22249       -0.02762
N         -0.37666       -0.72308        0.01025
C         -1.74423       -0.40852        0.00797
N         -2.58888       -1.41498        0.02311
C         -3.94313       -1.35940        0.02255
N         -5.10306       -1.46916        0.02261
C          1.94417       -0.22989       -0.02046
C          2.41918       -1.51607       -0.07061
C          3.85769       -1.59152       -0.03875
C          4.46303       -0.37267        0.03695
S          3.27586        0.89232        0.06942
H         -4.01486        1.08808        0.93419
H         -4.06003        1.09502       -0.86267
H         -3.58898        2.56053        0.03094
H         -1.40725        3.02997       -0.08385
H          1.00254        2.38203       -0.11813
H          1.78368       -2.39789       -0.12745
H          4.37713       -2.54161       -0.07235
H          5.51737       -0.15121        0.07564
