24
148519.log	Energy: -449905.4936362
C          0.45456        1.65027       -0.13099
C         -0.84453        2.06985        0.03488
C         -1.92796        1.12961        0.09876
C         -1.62872       -0.25451       -0.02664
C         -0.28646       -0.67820       -0.19049
C          0.72954        0.26240       -0.24287
O          1.98503       -0.28575       -0.44566
C          3.14365        0.57918       -0.26243
C          4.31541       -0.40487       -0.33253
O          4.76628       -0.74165        0.98128
N         -2.65094       -1.29103        0.00244
O         -3.82696       -0.94621        0.13728
O         -2.30641       -2.45538       -0.11027
N         -3.20525        1.59991        0.29953
H          1.26326        2.37927       -0.18053
H         -1.06671        3.13279        0.12447
H         -0.06235       -1.74840       -0.27981
H          3.15950        1.31801       -1.08029
H          3.08866        1.07940        0.72036
H          4.03153       -1.32264       -0.88522
H          5.21057        0.05473       -0.79446
H          4.09414       -1.29287        1.43929
H         -4.00368        0.96249        0.30981
H         -3.39797        2.58460        0.32538
