20
148829.log	Energy: -648510.4375417
C         -1.40081       -0.68703        0.00985
C         -0.29493        0.16472        0.00099
N         -0.77092        1.49987       -0.01624
C         -2.14569        1.49403       -0.01766
C         -2.56108        0.14458       -0.00100
N         -3.93049       -0.31214        0.00277
O         -4.13527       -1.51617       -0.00025
O         -4.81021        0.53939        0.00930
C          1.12265       -0.14408        0.00626
C          1.68171       -1.39321       -0.00844
S          3.41397       -1.27730       -0.01155
C          3.29398        0.50741        0.02630
N          2.03454        0.94572        0.03927
N          4.42583        1.28802       -0.06674
H         -1.40764       -1.76312        0.02224
H         -0.16243        2.30729       -0.02560
H         -2.76752        2.37911       -0.02935
H          1.18174       -2.34618       -0.02032
H          5.29540        0.91708        0.28970
H          4.31317        2.28802        0.06444
