26
149184.log	Energy: -425511.9195881
C          3.59506       -1.15602        0.03935
C          3.62124        0.26855        0.02326
C          2.44836        1.00010       -0.01817
C          1.16263        0.29539       -0.00787
C          1.17136       -1.15677        0.00492
C          2.42342       -1.85928        0.02821
N         -0.00007       -1.85157       -0.00121
C         -1.17096       -1.15664       -0.00553
C         -2.42334       -1.85933       -0.02694
C         -3.59508       -1.15626       -0.03849
C         -3.62148        0.26863       -0.02374
C         -2.44850        0.99991        0.01792
C         -1.16269        0.29559        0.00726
N         -0.00006        0.99140       -0.00067
N         -2.46377        2.39202        0.14222
N          2.46357        2.39206       -0.14153
H          4.55332       -1.68001        0.06122
H          4.58752        0.76445        0.02730
H          2.39547       -2.94851        0.03769
H         -2.39564       -2.94849       -0.03592
H         -4.55360       -1.67999       -0.05870
H         -4.58739        0.76547       -0.02589
H         -3.29786        2.88414       -0.13452
H         -1.60441        2.89417       -0.03227
H          1.60533        2.89477        0.03753
H          3.29944        2.88348        0.13095
