30
1492831.log	Energy: -483953.1142524
C          5.69078        0.78409        0.31591
C          4.30398        0.26610        0.11688
C          3.26238        1.13996       -0.23121
C          1.95900        0.67437       -0.40034
C          1.68449       -0.69086       -0.21723
C          2.72350       -1.58040        0.12898
C          4.02084       -1.09790        0.29021
N          0.39019       -1.26656       -0.43400
C         -0.83681       -0.62422       -0.20107
N         -0.95824        0.71632       -0.15482
N         -2.22069        1.23329        0.00818
C         -3.38488        0.48208        0.11909
O         -4.49564        0.97340        0.26384
C         -3.13454       -1.01744        0.05743
N         -1.91725       -1.54671       -0.08613
N         -4.23652       -1.82103        0.16542
C         -2.26124        2.71619        0.05552
H          6.45492        0.01792        0.13167
H          5.82834        1.13857        1.34826
H          5.91877        1.62726       -0.34948
H          3.46936        2.20047       -0.37181
H          1.16681        1.37399       -0.67668
H          2.52447       -2.63974        0.27420
H          4.81792       -1.78936        0.55850
H          0.34072       -2.29262       -0.35708
H         -5.15117       -1.40886        0.29415
H         -4.14940       -2.82385        0.13820
H         -1.70240        3.09109        0.93089
H         -1.80679        3.14557       -0.85504
H         -3.31379        3.05347        0.12799
