28
1492821.log	Energy: -506420.6944519
C         -3.51445        2.66088        0.47095
O         -2.40495        1.80236        0.11430
C         -2.63958        0.44259        0.04674
C         -3.84183       -0.19090        0.35240
C         -3.91959       -1.58677        0.24160
C         -2.81556       -2.32696       -0.17380
C         -1.60743       -1.68935       -0.49017
C         -1.49720       -0.30009       -0.38302
N         -0.31896        0.41518       -0.78490
C          0.96259        0.04971       -0.32805
N          1.25567       -1.21559        0.03442
N          2.56522       -1.48749        0.35191
C          3.61231       -0.57326        0.31883
O          4.75750       -0.87790        0.61170
C          3.17055        0.82071       -0.10077
N          1.90238        1.11908       -0.39260
N          4.14663        1.77782       -0.16699
H         -3.04927        3.65462        0.42775
H         -3.85857        2.43291        1.48417
H         -4.31818        2.56980       -0.26541
H         -4.71014        0.37262        0.67838
H         -4.85520       -2.08913        0.48437
H         -2.88194       -3.41032       -0.25752
H         -0.74860       -2.28195       -0.81907
H         -0.45306        1.43896       -0.86932
H          2.72359       -2.46581        0.62479
H          5.09526        1.55269        0.09944
H          3.92024        2.72754       -0.41665
