31
14922405.log	Energy: -408692.8084304
C          2.97964       -1.45400        0.14714
C          2.04812       -1.13108        1.32732
C          0.60237       -1.20039        0.95008
C         -0.13908       -0.12267        0.64707
O          0.37412        1.17432        0.81154
C          1.02830        1.74151       -0.35720
C          2.54038        1.56556       -0.20789
O          3.10912        0.66187       -1.16746
C          2.64857       -0.70344       -1.14410
C         -1.56060       -0.12789        0.24264
C         -2.39342        0.93568        0.62909
C         -3.74055        0.93701        0.26281
C         -4.26304       -0.11687       -0.49488
C         -3.43510       -1.17246       -0.88880
C         -2.08614       -1.18069       -0.52272
H          4.02476       -1.22757        0.44061
H          2.94860       -2.54234       -0.05986
H          2.28941       -0.11172        1.71745
H          2.25502       -1.82892        2.16382
H          0.16616       -2.19868        0.93406
H          0.72418        2.80275       -0.28993
H          0.63834        1.30255       -1.28864
H          2.78931        1.22709        0.82093
H          3.09422        2.49491       -0.44109
H          1.56937       -0.72466       -1.37391
H          3.21586       -1.11407       -2.00375
H         -1.97266        1.75488        1.21565
H         -4.38484        1.76038        0.56736
H         -5.31390       -0.11320       -0.77898
H         -3.84100       -1.99006       -1.48205
H         -1.44528       -2.00243       -0.83758
