22
1496698.log	Energy: -376819.1986648
C         -3.65090        0.09243        0.89141
C         -3.12873       -0.36337       -0.45428
O         -1.74418       -0.82473       -0.31485
C         -0.76056        0.13389       -0.25056
O         -1.02865        1.32120       -0.34506
C          0.53832       -0.47455       -0.09389
C          1.79538        0.14980        0.08995
N          2.73221       -0.89573        0.16409
N          2.11769       -2.12880        0.09312
C          0.80403       -1.89633       -0.07894
N          2.17105        1.49123        0.30318
N          1.32407        2.55394       -0.11952
H         -3.44787       -0.65126        1.67372
H         -4.73314        0.26545        0.86561
H         -3.17201        1.03213        1.20585
H         -3.61286       -1.28571       -0.82410
H         -3.16003        0.43488       -1.21745
H          3.70953       -0.83829        0.41599
H          0.05953       -2.67461       -0.19072
H          3.14234        1.72123        0.03040
H          0.80480        2.34011       -0.98672
H          0.59195        2.68865        0.59856
