17
1511466.log	Energy: -803347.0626482
C          0.22571        2.28860       -0.00260
C         -1.12602        2.20212       -0.00235
C         -1.78615        0.90814        0.00286
N         -3.08716        0.67258        0.00272
S         -3.33027       -1.01402       -0.00335
N         -1.68186       -1.46419       -0.00520
C         -0.95781       -0.35647        0.00085
C          0.45329       -0.18762        0.00137
C          1.03374        1.08305        0.00195
N          2.43562        1.10788        0.01995
C          2.92732       -0.13879        0.01705
S          1.66979       -1.41896        0.00435
N          4.25697       -0.47174       -0.07381
H          0.75441        3.24520       -0.00715
H         -1.76973        3.08532       -0.00468
H          4.55880       -1.38085        0.24280
H          4.93879        0.27205        0.03252
