26
1518294.log	Energy: -471891.1280425
C         -4.22456       -0.48406        0.58221
C         -3.91334        0.86627        0.83331
C         -2.64612        1.35630        0.54617
C         -1.67154        0.49488        0.00265
C         -1.98327       -0.85720       -0.24906
C         -3.27265       -1.34262        0.04524
C         -0.92986       -1.69730       -0.81034
N          0.27779       -1.26024       -1.08931
N          0.58852        0.03525       -0.83657
C         -0.32825        1.02052       -0.30780
O          0.06497        2.15977       -0.16956
C          1.95962        0.44091       -1.22784
C          3.02955        0.24166       -0.15316
O          4.01616        0.96003       -0.10343
N          2.87895       -0.80153        0.75730
N          3.84557       -1.06905        1.76069
H         -5.22503       -0.85427        0.81305
H         -4.67302        1.52507        1.25451
H         -2.38599        2.40293        0.73330
H         -3.51605       -2.38636       -0.14954
H         -1.13719       -2.75436       -1.02249
H          2.28238       -0.10246       -2.15056
H          1.94427        1.53821       -1.48271
H          2.12659       -1.49075        0.73775
H          4.78186       -1.13871        1.33319
H          3.89990       -0.26470        2.40428
