27
152522.log	Energy: -415476.3504933
C          3.64578       -1.43703        0.03578
C          2.38369       -1.96144        0.00262
C          1.23983       -1.09340       -0.01295
C         -0.07952       -1.57364       -0.02438
C         -1.15942       -0.68102       -0.01038
C         -0.86509        0.73055        0.01905
C         -1.96198        1.68096        0.03810
C         -3.24867        1.24959        0.03051
C         -3.54294       -0.17344        0.00306
C         -2.52850       -1.10505       -0.01168
N         -4.89639       -0.56266       -0.08835
N          0.40245        1.21298        0.02617
C          1.43736        0.33298       -0.00097
C          2.81160        0.85360       -0.00412
C          3.87352       -0.03121        0.03970
N          3.02012        2.22999       -0.12678
H          4.51857       -2.09176        0.05655
H          2.21684       -3.03461       -0.00988
H         -0.26295       -2.64698       -0.04234
H         -1.70759        2.74318        0.05419
H         -4.07905        1.95354        0.02941
H         -2.73369       -2.17085       -0.03795
H         -5.11112       -1.52305        0.13589
H         -5.58612        0.08282        0.26418
H          4.89809        0.32641        0.05408
H          2.22770        2.84366        0.01561
H          3.90206        2.60679        0.17689
