26
153603.log	Energy: -518619.9817266
C          3.14714       -2.23688       -0.39624
C          4.08831       -1.21760       -0.21295
C          3.65958        0.08681        0.02869
C          2.28516        0.37738        0.05868
C          1.32784       -0.63726       -0.12470
C          1.78199       -1.95098       -0.34742
C         -0.12802       -0.44183       -0.05216
N         -0.95651       -1.26654        0.64029
C         -2.25175       -0.78542        0.41570
C         -2.19086        0.36535       -0.45344
N         -0.83834        0.55319       -0.75930
C         -3.38820        1.03074       -0.82506
N         -4.56716        0.58994       -0.37633
C         -4.61909       -0.51660        0.45434
C         -3.50902       -1.23138        0.87613
N          1.92452        1.79510        0.31241
O          2.51408        2.37341        1.20243
O          1.08639        2.30976       -0.41730
H          3.47971       -3.26230       -0.57407
H          5.15590       -1.44257       -0.24470
H          4.38959        0.88457        0.20104
H          1.04668       -2.75529       -0.46676
H         -0.44011        1.33784       -1.26508
H         -3.37945        1.91151       -1.47488
H         -5.63299       -0.79709        0.76436
H         -3.57906       -2.09789        1.53005
