26
1548086.log	Energy: -552069.7159398
C          2.54427        2.11250        1.08680
C          1.95257        1.78463       -0.27650
N          1.08824        0.58366       -0.20464
C         -0.29939        0.59863       -0.13401
C         -0.71866       -0.76714       -0.00882
N          0.37605       -1.60573        0.00464
C          1.46084       -0.75424       -0.10610
N          2.85800       -1.25434       -0.15171
O          3.69591       -0.43515       -0.49772
O          3.06186       -2.40209        0.15373
N         -2.07053       -1.10038        0.07734
C         -3.05664       -0.07139        0.04151
O         -4.24288       -0.31112        0.12003
N         -2.59006        1.27420       -0.09188
C         -1.23406        1.71177       -0.19164
O         -0.98720        2.89206       -0.31316
C         -2.48157       -2.52097        0.19606
H          1.77156        2.25028        1.85577
H          3.11730        3.05066        1.03902
H          3.23785        1.33553        1.43725
H          1.33354        2.64135       -0.65471
H          2.76715        1.59145       -1.02197
H         -3.32680        1.99887       -0.11821
H         -2.18454       -3.08271       -0.70846
H         -1.99368       -2.98866        1.07102
H         -3.57988       -2.59095        0.31706
