24
1549043.log	Energy: -429178.4610625
C          4.13598       -1.03240       -0.21459
O          3.54406        0.27669       -0.42901
C          2.20929        0.42633       -0.16170
C          1.30084       -0.55590        0.30708
C         -0.03542       -0.23611        0.54961
C         -0.49907        1.06682        0.31208
C          0.40420        2.04310       -0.15095
C          1.74009        1.73287       -0.38832
C         -1.89020        1.46552        0.54631
C         -3.02311        0.77930        0.33512
C         -3.16298       -0.58842       -0.16824
O         -2.41876       -1.54576       -0.18665
O         -4.43845       -0.75080       -0.67903
O          1.78719       -1.83316        0.51470
H          5.17379       -0.86223       -0.52104
H          3.64195       -1.77763       -0.84728
H          4.06204       -1.30887        0.84207
H         -0.72363       -1.00898        0.90681
H          0.05868        3.05988       -0.34051
H          2.44007        2.48406       -0.75387
H         -1.98807        2.49771        0.92631
H         -3.99553        1.25617        0.53227
H         -4.58809       -1.66378       -1.04149
H          1.04877       -2.45868        0.73813
