30
157253.log	Energy: -478552.3791349
C          1.46922        3.32524        0.26732
C          1.01311        1.91468        0.14743
C          1.86318        0.84133        0.04797
C          3.32203        0.91499        0.03764
C          4.09244       -0.18273       -0.04653
C          3.52505       -1.55789       -0.13959
O          4.23883       -2.53960       -0.21697
C          2.05578       -1.63885       -0.13515
C          1.32519       -0.50836       -0.05090
O         -0.06962       -0.69652       -0.05983
C         -0.89336        0.40500        0.02986
C         -0.40849        1.67108        0.13856
C         -2.30229       -0.02101        0.00259
C         -2.67292       -1.25755        0.55820
C         -4.01274       -1.65112        0.54874
C         -4.98337       -0.81986       -0.01955
C         -4.61357        0.40618       -0.58370
C         -3.27700        0.80952       -0.57628
H          1.11541        3.93249       -0.58143
H          2.56482        3.42769        0.29894
H          1.07757        3.79675        1.18305
H          3.75920        1.91473        0.10196
H          5.18109       -0.13890       -0.05541
H          1.61729       -2.63021       -0.20876
H         -1.08386        2.51976        0.23198
H         -1.90764       -1.90732        0.99065
H         -4.30009       -2.60917        0.98211
H         -6.02883       -1.12875       -0.02746
H         -5.37049        1.04791       -1.03398
H         -2.99170        1.76010       -1.02686
