31
1594938.log	Energy: -525120.6657682
C         -3.94296       -1.72646        0.01528
O         -2.59461       -2.22243       -0.19919
C         -1.56153       -1.33570       -0.24546
C         -1.61478        0.06265       -0.05435
C         -0.43365        0.81558       -0.21830
C          0.81295        0.19257       -0.47128
C          0.83187       -1.20884       -0.61851
C         -0.32833       -1.96223       -0.53313
C          1.98981        1.04348       -0.60420
C          3.27563        0.80100       -0.29923
C          3.85014       -0.41080        0.27609
O          3.48630       -1.56821        0.30421
O          5.06592       -0.10265        0.86539
O         -0.36782        2.18435       -0.05067
C         -1.38078        2.97445       -0.73366
O         -2.82570        0.68303        0.24545
C         -2.90854        1.09285        1.64325
H         -4.54357       -2.61780       -0.20052
H         -4.16769       -0.90467       -0.67415
H         -4.05078       -1.40512        1.05424
H          1.78617       -1.71703       -0.82078
H         -0.30904       -3.04330       -0.67049
H          1.74270        2.05270       -0.98868
H          4.02380        1.59344       -0.44950
H          5.49807       -0.89920        1.27119
H         -1.18574        2.93788       -1.80898
H         -2.39209        2.61771       -0.50490
H         -1.20103        3.97463       -0.32424
H         -2.84375        0.21772        2.29443
H         -2.11200        1.80898        1.87120
H         -3.89675        1.56001        1.69067
