41
160614.log	Energy: -433533.2998956
C         -3.88331       -0.16150        0.16593
C         -3.57375       -1.26403       -0.85036
C         -2.11452       -1.74660       -0.73764
N         -1.12845       -0.71496       -0.28375
C         -0.75877       -0.88584        1.15847
C          0.31495        0.15168        1.57183
H          0.53524        0.01840        2.65852
C         -0.22376        1.57036        1.32475
C         -0.49569        1.69378       -0.18294
H         -0.87460        2.71691       -0.40961
C         -1.58543        0.66838       -0.61282
H         -1.67430        0.69607       -1.73249
C         -2.96564        1.05452       -0.01849
C          0.81325        1.47281       -0.98539
N          1.93825        0.97994       -0.12490
C          1.60077       -0.07040        0.78824
C          2.39221       -1.13721        1.02464
C          3.59329       -1.45331        0.18859
C          3.54191       -0.69964       -1.14938
C          3.21011        0.77743       -0.88711
H         -4.94129        0.14836        0.07776
H         -3.76982       -0.56407        1.19165
H         -4.26173       -2.11731       -0.70882
H         -3.76567       -0.88736       -1.87352
H         -1.75640       -2.07818       -1.73953
H         -2.06074       -2.64011       -0.08262
H         -0.34127       -1.91074        1.27331
H         -1.62918       -0.80207        1.84213
H          0.51434        2.32798        1.65012
H         -1.14383        1.75096        1.90858
H         -2.83799        1.56170        0.95730
H         -3.44481        1.79590       -0.68249
H          1.14474        2.44350       -1.41410
H          0.62503        0.78018       -1.83538
H          2.18232       -1.83355        1.82627
H          4.51432       -1.18251        0.74362
H          3.65150       -2.54393        0.00603
H          4.50165       -0.78777       -1.68632
H          2.77026       -1.15046       -1.80289
H          4.01112        1.23425       -0.25949
H          3.18888        1.34630       -1.83734
