23
16139.log	Energy: -405809.1243389
C          2.95185       -1.54887       -0.00099
C          3.55656       -0.29464        0.00169
C          2.77792        0.88275        0.00258
C          1.40290        0.75659        0.00023
C          0.78314       -0.53324       -0.00063
C          1.54786       -1.68537       -0.00220
C         -0.67610       -0.34636       -0.00070
C         -0.96810        1.05035       -0.00038
C          0.34333        1.81687       -0.00060
O          0.48061        3.01182       -0.00208
C         -2.26047        1.52668        0.00060
C         -3.31994        0.58850        0.00046
C         -3.07277       -0.77683        0.00093
C         -1.73508       -1.24736        0.00002
O         -1.42766       -2.58467       -0.00009
H          3.56962       -2.44787       -0.00175
H          4.64227       -0.21340        0.00353
H          3.25134        1.86490        0.00479
H          1.07547       -2.66746       -0.00400
H         -2.46481        2.59725        0.00122
H         -4.34839        0.95301        0.00049
H         -3.89616       -1.48646        0.00173
H         -2.23951       -3.15155        0.00524
