27
164888.log	Energy: -290424.6549338
C         -2.57348       -1.38105        0.47598
C         -1.44617       -0.52399        0.02199
C         -1.48593        0.81958       -0.05599
C         -0.26871        1.57860       -0.55562
H         -0.51072        2.17740       -1.46478
C          0.89751        0.59529       -0.84010
H          1.80627        1.09937       -1.17290
C          0.29286       -0.52869       -1.73678
C         -0.16127       -1.20850       -0.40442
H         -0.18227       -2.29812       -0.37135
C          1.06001       -0.48462        0.29818
C          0.89649       -0.06511        1.75033
C          2.36011       -1.27995        0.16181
O          0.11747        2.59905        0.37125
H         -3.40143       -0.79959        0.90401
H         -2.25085       -2.09933        1.24282
H         -2.98639       -1.96304       -0.36139
H         -2.33902        1.42398        0.22064
H          1.03007       -1.09989       -2.30891
H         -0.50391       -0.23273       -2.42377
H          0.69856       -0.93627        2.38641
H          1.80585        0.41905        2.12762
H          0.06514        0.63631        1.90671
H          2.52253       -1.65385       -0.85482
H          3.22752       -0.66037        0.41743
H          2.36412       -2.14814        0.82998
H          0.28624        2.21346        1.25997
