22
165198.log	Energy: -451670.7545665
C          0.48697       -1.30083       -1.00229
C          1.78434       -1.52705       -0.51271
C          2.51434       -0.46549        0.01289
C          1.94350        0.84255        0.05340
C          0.66065        1.06017       -0.43672
C         -0.07011       -0.02360       -0.96798
C         -1.45382        0.21981       -1.49719
C         -2.46727        0.47705       -0.41289
O         -3.34990        1.28636       -0.46561
C         -2.33867       -0.47973        0.79789
O         -2.65505       -1.63988        0.85314
O         -1.78569        0.18066        1.85315
O          2.73633        1.82182        0.58826
O          3.78426       -0.57724        0.51531
H         -0.07754       -2.14267       -1.40256
H          2.20729       -2.52840       -0.54738
H          0.22016        2.05405       -0.40868
H         -1.44831        1.07906       -2.20987
H         -1.80962       -0.64324       -2.11022
H         -1.67660       -0.39750        2.66095
H          2.26557        2.69545        0.61398
H          4.11986       -1.50790        0.44346
