28
167432.log	Energy: -430947.7524416
C         -2.63594        1.91692       -1.06046
O         -2.19776        1.55254        0.28133
C         -2.40026        0.28614        0.69910
C         -1.63141       -0.13758        1.75285
C         -0.21362        0.02609        1.55246
C          0.30010       -0.32199        0.33257
C         -0.40755       -0.96466       -0.77707
C         -1.71845       -1.19755       -1.03107
C         -2.90345       -0.78197       -0.25018
O         -4.01892       -1.22688       -0.32995
C          1.75774       -0.14087        0.11055
C          2.28115        1.15113       -0.04838
C          3.65129        1.32715       -0.25821
C          4.50338        0.21962       -0.30813
C          3.98296       -1.06851       -0.14576
C          2.61401       -1.25213        0.06259
H         -2.49480        3.00506       -1.05844
H         -3.68901        1.65766       -1.20439
H         -1.98832        1.43592       -1.79967
H         -2.00572       -0.74985        2.56081
H          0.42411        0.33027        2.38170
H          0.29658       -1.36442       -1.53288
H         -1.98999       -1.80806       -1.89935
H          1.61776        2.01340       -0.00750
H          4.05564        2.33038       -0.38312
H          5.57000        0.35923       -0.47099
H          4.64653       -1.93125       -0.17922
H          2.21097       -2.25427        0.19683
