26
1714417.log	Energy: -427425.8145102
C          4.84368       -0.78420        0.31494
C          3.61036       -0.08565       -0.24035
C          2.36790       -0.96696       -0.12303
O          1.29599        0.03925       -0.08341
C          0.00415       -0.37509       -0.04589
C         -0.95403        0.66241        0.00474
C         -2.32620        0.35080        0.04288
C         -2.74165       -0.98355        0.04062
C         -1.77262       -2.02109       -0.00784
C         -0.42233       -1.72379       -0.04908
N         -4.12735       -1.31294       -0.03338
N         -0.55430        2.07680        0.01428
O          0.63302        2.34660        0.00406
O         -1.45158        2.91007        0.03847
H          4.76586       -0.95512        1.39567
H          5.74249       -0.17505        0.15108
H          5.01956       -1.75347       -0.16556
H          3.42280        0.87199        0.30081
H          3.76826        0.21356       -1.29561
H          2.21404       -1.61969       -0.99583
H          2.33153       -1.54356        0.81560
H         -3.04942        1.17421        0.06637
H         -2.10063       -3.06206       -0.02302
H          0.30703       -2.52958       -0.09066
H         -4.37374       -2.19403        0.39950
H         -4.75116       -0.57880        0.28045
