32
17172.log	Energy: -476868.2642396
C          6.03989       -0.65846        0.18318
N          4.71461       -1.21957       -0.15643
C          3.55877       -0.44151       -0.04333
C          2.31114       -1.10176       -0.03932
C          1.15406       -0.32111       -0.03362
C          1.17426        1.09363       -0.01685
C          2.43860        1.72135       -0.00970
C          3.60812        0.98359       -0.01720
C         -0.07997        1.80760       -0.00738
C         -1.24585        1.11278       -0.00835
C         -2.57481        1.72585        0.00010
C         -3.69795        0.98733        0.00948
C         -3.67995       -0.50048        0.01049
N         -4.70336       -1.29940        0.02656
C         -6.08150       -0.79767        0.04776
C         -2.34481       -1.12751       -0.00946
C         -1.24370       -0.35196       -0.01713
O         -0.02021       -1.04796       -0.03515
H          6.27335        0.19755       -0.47672
H          6.81699       -1.42263        0.01163
H          6.11082       -0.31724        1.23013
H          4.62178       -2.21438        0.04426
H          2.22688       -2.18443       -0.05434
H          2.48502        2.81225        0.00441
H          4.56762        1.49179       -0.01634
H         -0.05340        2.89726       -0.00039
H         -2.60722        2.81624       -0.00172
H         -4.68040        1.45704        0.01507
H         -6.30451       -0.16817        0.92422
H         -6.34915       -0.23780       -0.86296
H         -6.74240       -1.68416        0.09835
H         -2.30012       -2.21674       -0.01742
