33
174070.log	Energy: -466837.5533194
C          1.04939       -1.80122        1.77728
C          1.35976       -0.98300        0.51556
C          2.76033       -0.33086        0.65296
C          3.30923       -0.17470       -0.77279
C          2.56542       -1.20332       -1.64545
C          1.50244       -1.87268       -0.75613
C          0.23019       -0.00110        0.29005
C          0.23345        1.35685        0.18962
C         -1.17588        1.88809       -0.05243
O         -1.51880        3.03003       -0.17280
C         -2.02725        0.65174       -0.09795
C         -3.38324        0.52134       -0.30152
C         -3.93188       -0.78177       -0.29675
C         -3.11897       -1.88956       -0.09132
C         -1.72759       -1.74832        0.11655
C         -1.18269       -0.47852        0.11250
C          1.29078        2.29166        0.26148
N          2.13348        3.08450        0.31200
H          0.13847       -2.40234        1.67853
H          0.92201       -1.15122        2.65207
H          1.86542       -2.49678        2.00985
H          2.74495        0.61461        1.21387
H          3.42416       -0.99643        1.23750
H          4.40001       -0.33432       -0.79807
H          3.14570        0.85074       -1.15119
H          3.26150       -1.95340       -2.05679
H          2.09677       -0.70859       -2.51377
H          1.82773       -2.88737       -0.46642
H          0.55176       -1.99757       -1.29710
H         -4.01760        1.39477       -0.46058
H         -5.00291       -0.90856       -0.45514
H         -3.55182       -2.89086       -0.08810
H         -1.11093       -2.63220        0.28383
