28
1771422.log	Energy: -511243.1761989
C          4.27258       -1.05537        0.12479
C          3.41943        0.16006       -0.00348
O          3.88254        1.28025       -0.09430
C          1.93462       -0.02308       -0.00998
C          1.14121        1.09004       -0.00258
C         -0.28589        0.99369       -0.01091
C         -1.17995        2.11794        0.00453
C         -2.56590        1.90591        0.00451
C         -3.10049        0.60861        0.00097
C         -2.26162       -0.49881       -0.01188
C         -0.84975       -0.30250       -0.01600
O         -0.08578       -1.42354       -0.02815
C          1.35992       -1.35239       -0.02788
O          1.84582       -2.45003       -0.04763
O         -2.62887       -1.82945       -0.03013
C         -4.04692       -2.11357        0.04062
N         -0.67509        3.42210        0.09297
H          5.34230       -0.80412        0.08050
H          4.06608       -1.79619       -0.66671
H          4.09068       -1.58734        1.07212
H          1.61696        2.08304        0.01184
H         -3.24978        2.75177        0.01962
H         -4.18374        0.48618        0.00573
H         -4.46783       -1.74139        0.97864
H         -4.56452       -1.71205       -0.83446
H         -4.04371       -3.21310        0.02260
H          0.28362        3.59215       -0.16949
H         -1.29757        4.18546       -0.12568
