21
17762778.log	Energy: -381487.5802615
C         -0.39673        2.09260        0.20019
C         -1.18097        0.82477        0.07164
C         -2.57932        0.89780        0.03349
C         -3.34266       -0.26816       -0.05032
C         -2.70589       -1.51249       -0.10169
C         -1.31327       -1.59417       -0.07246
C         -0.53389       -0.42679        0.01829
C          0.92680       -0.46740        0.03386
C          1.64541       -1.62756        0.13602
O          2.97380       -1.71056        0.10569
C          1.66137        0.79180       -0.09444
O          2.88473        0.85322       -0.20409
O          1.02185        1.99706       -0.11352
H         -0.42175        2.48471        1.23815
H         -0.72682        2.87680       -0.51286
H         -3.07606        1.86723        0.06898
H         -4.42919       -0.20805       -0.07899
H         -3.30066       -2.42330       -0.16963
H         -0.83749       -2.57114       -0.12559
H          1.21548       -2.62688        0.25776
H          3.44834       -0.77945       -0.02987
