26
17804948.log	Energy: -495406.0657312
C         -4.28472       -1.77053        0.28560
C         -3.00361       -2.39059        0.35959
C         -1.85869       -1.64227        0.24620
C         -1.93330       -0.22819        0.04178
C         -3.20990        0.39096       -0.02929
C         -4.38599       -0.41515        0.09920
C         -3.30494        1.80454       -0.22892
C         -2.17396        2.57252       -0.35822
C         -0.88844        1.97314       -0.30287
C         -0.76658        0.60819       -0.10615
N          0.49741       -0.07166        0.03095
N          1.50962        0.45526       -0.47806
C          2.75965       -0.16874       -0.34974
C          3.40118       -1.07248       -1.11747
N          4.81612       -1.16843       -0.66920
N          5.05613       -0.41728        0.28156
C          3.80713        0.37118        0.67953
O          3.71416        1.16183        1.55121
H         -5.17470       -2.39161        0.38180
H         -2.95192       -3.46855        0.51265
H         -0.87597       -2.11406        0.31505
H         -5.35987        0.07073        0.04550
H         -4.29537        2.25967       -0.27490
H         -2.24242        3.65064       -0.50660
H         -0.00333        2.60518       -0.41153
H          3.08819       -1.68744       -1.94390
