30
178018.log	Energy: -478574.1792870
C         -4.11224       -0.16771        0.01443
C         -3.47654        1.10051        0.10171
C         -2.09872        1.19278        0.07912
C         -1.30537       -0.00177       -0.04046
C         -1.94438       -1.26517       -0.09868
C         -3.37294       -1.32224       -0.07810
C         -1.14195       -2.44814       -0.16766
C          0.22750       -2.36320       -0.17078
C          0.87627       -1.09525       -0.13428
C          0.12694        0.06969       -0.08736
C          0.78525        1.39284       -0.08369
C          2.10860        1.49304       -0.31478
C          2.94203        0.29360       -0.67483
C          2.38236       -1.03506       -0.09228
O          2.85860       -1.13868        1.26188
O          4.28436        0.47195       -0.23052
C         -0.06399        2.56769        0.14310
C         -1.40489        2.47821        0.19972
H         -5.20182       -0.20636        0.02780
H         -4.09537        1.99211        0.18813
H         -3.85895       -2.29479       -0.13553
H         -1.64025       -3.41603       -0.20980
H          0.84138       -3.26473       -0.19909
H          2.65305        2.43630       -0.29808
H          3.04345        0.23185       -1.78821
H          2.87037       -1.90986       -0.58230
H          2.28412       -0.62174        1.87065
H          4.37412        0.16208        0.71152
H          0.44809        3.52582        0.24627
H         -2.02942        3.36033        0.34662
