29
17900775.log	Energy: -465370.3660366
C          4.20111        1.21199       -0.01012
C          4.66765       -0.10777       -0.00645
C          3.76599       -1.17286        0.00181
C          2.39818       -0.87670        0.00294
C          1.88974        0.43950        0.00097
C          2.82985        1.48223       -0.00546
C          0.43738        0.65264        0.00560
C         -0.13891        1.88336        0.01208
C         -1.56972        2.05043        0.00891
C         -2.37607        0.94771        0.00075
C         -1.85005       -0.42667        0.00009
C         -2.71303       -1.48638       -0.00022
C         -4.13590       -1.28118       -0.00338
C         -4.63938       -0.01415       -0.00796
N         -3.78817        1.09327       -0.00570
C         -0.38710       -0.56944        0.00172
C          0.20376       -1.78756        0.00233
O          1.57238       -2.00165        0.00505
H          4.91143        2.03614       -0.01607
H          5.73831       -0.30777       -0.00886
H          4.09965       -2.20761        0.00622
H          2.48441        2.51675       -0.00702
H          0.46093        2.79312        0.01882
H         -1.95997        3.06052        0.01005
H         -2.35755       -2.51661        0.00097
H         -4.78939       -2.14827       -0.00348
H         -5.71145        0.20198       -0.01312
H         -4.18067        2.02894       -0.01104
H         -0.25860       -2.76781        0.00131
