11
17962603.log	Energy: -190861.2632555
C         -1.27867        0.70738       -0.37424
C         -1.27759       -0.71012       -0.37488
C          0.00157       -1.06730        0.20964
C          1.25841       -0.71857       -0.39674
C          1.25477        0.72083       -0.39703
C         -0.00134        1.06849        0.21122
O          0.03847       -0.00074        1.23950
H         -2.02537        1.36369       -0.77238
H         -2.02312       -1.36671       -0.77419
H          2.00301       -1.36311       -0.81585
H          1.99478        1.36779       -0.82139
