25
17984059.log	Energy: -404149.6085483
C         -3.90690       -1.59108       -0.11369
C         -4.52240       -0.32114        0.09985
C         -3.76360        0.81625        0.20697
C         -2.33774        0.72962        0.09776
C         -1.71978       -0.53553       -0.11579
C         -2.54285       -1.69900       -0.21962
C         -0.29589       -0.58237       -0.21598
C          0.43897        0.57971       -0.11416
C         -0.27022        1.82104        0.09642
N         -1.58879        1.90021        0.20298
C          1.89948        0.61561       -0.22387
C          2.71305       -0.36928        0.18484
C          4.18303       -0.22743        0.01834
O          4.73838        0.74856       -0.46423
N          4.95768       -1.30826        0.44563
H         -4.54467       -2.47105       -0.19109
H         -5.60904       -0.27544        0.17832
H         -4.21096        1.79841        0.37280
H         -2.06743       -2.66526       -0.38377
H          0.18919       -1.54444       -0.38584
H          0.29623        2.75920        0.18293
H          2.32192        1.53024       -0.67182
H          2.34490       -1.28091        0.64974
H          4.57904       -2.13447        0.86495
H          5.96082       -1.26684        0.35097
