24
180896.log	Energy: -406352.6654562
C         -3.65436       -0.01470        0.00313
C         -2.99360       -1.22360        0.00034
C         -1.55511       -1.25561       -0.00193
C         -0.97093        0.00560       -0.00439
C         -1.62763        1.29090       -0.00100
C         -2.99377        1.26957        0.00229
C         -0.52655        2.30367        0.00028
C          0.67955        1.66098       -0.00143
C          0.43245        0.20192       -0.00327
C          1.31073       -0.84617       -0.00166
C          0.73767       -2.15839       -0.00059
C         -0.63408       -2.35816       -0.00086
C          2.75380       -0.45369        0.00118
O          3.66187       -1.25563        0.00400
C          3.02470        1.02854        0.00052
C          2.09490        2.00471       -0.00071
H         -4.74611       -0.00241        0.00584
H         -3.54307       -2.16280        0.00112
H         -3.59976        2.17165        0.00484
H         -0.71704        3.36151        0.00332
H          1.42298       -3.00937        0.00120
H         -1.03680       -3.36986        0.00008
H          4.09291        1.26116        0.00141
H          2.36529        3.06169       -0.00119
