31
1827785.log	Energy: -489238.8431750
C          5.21682        0.37038        0.87723
C          4.30337        0.69137       -0.27539
H          4.06249        1.73314       -0.50731
O          5.70830        0.35046       -0.49967
C          3.32138       -0.34470       -0.77472
O          2.51548       -0.64378        0.41865
N          1.33931       -1.33037        0.00925
C          0.20083       -0.47681        0.10258
C          0.14315        0.89135        0.10512
C         -1.26848        1.31561        0.05571
C         -1.94629        2.50443        0.03391
C         -3.38092        2.47120       -0.01770
C         -4.10589        1.30038       -0.04766
C         -3.43019        0.03522       -0.02533
C         -2.04029        0.09478        0.02662
C         -1.17562       -1.05520        0.05193
C         -1.74122       -2.29943        0.01915
C         -3.17351       -2.39018       -0.02984
C         -3.99398       -1.28315       -0.05107
H          5.17678       -0.60670        1.35502
H          5.63288        1.16399        1.49255
H          2.67469        0.03162       -1.58604
H          3.81730       -1.27795       -1.09878
H          1.29918       -2.12691        0.65936
H          0.96913        1.57468        0.15146
H         -1.43783        3.46416        0.05443
H         -3.90179        3.42941       -0.03442
H         -5.19252        1.31512       -0.08746
H         -1.15301       -3.21313        0.02232
H         -3.61121       -3.38863       -0.05321
H         -5.07645       -1.39118       -0.08773
