23
18350013.log	Energy: -366781.6554993
C          2.98242       -1.27296        1.07082
C          2.57687       -1.08223       -0.38653
N          1.32213       -0.29802       -0.53788
C          1.20760        1.08285       -0.21941
O          2.09174        1.89304       -0.17601
C         -0.34331        1.30054       -0.05029
O         -0.91953        2.32563        0.13300
C         -0.87566       -0.13168       -0.17005
N          0.11933       -0.99718       -0.37010
N         -2.23796       -0.44747       -0.23633
C         -2.55311       -1.90240       -0.21412
C         -3.13192        0.35968        0.63595
H          3.17171       -0.31520        1.57317
H          3.90289       -1.86484        1.14670
H          2.20801       -1.79995        1.64274
H          3.36673       -0.52548       -0.94557
H          2.43109       -2.06742       -0.88889
H         -2.28708       -2.40023        0.73183
H         -3.62762       -2.04716       -0.40716
H         -1.99512       -2.40837       -1.02641
H         -3.03913        0.12880        1.70815
H         -2.93278        1.44021        0.49115
H         -4.17825        0.18610        0.33045
