20
18415171.log	Energy: -368309.7864239
C         -3.59433       -0.20089       -0.07325
C         -2.90359       -1.20316        0.61553
C         -1.50658       -1.20614        0.63789
C         -0.79990       -0.19562       -0.03189
C         -1.49173        0.81652       -0.71637
C         -2.88758        0.80723       -0.73826
C          0.67702       -0.19582       -0.02510
C          1.40899       -1.23936       -0.44407
C          2.83677       -1.26466       -0.45905
N          3.99182       -1.30956       -0.48429
C          1.30549        1.05544        0.50649
O          1.72337        1.29064        1.61063
O          1.34713        2.00941       -0.48265
H         -4.68367       -0.20337       -0.08985
H         -3.45519       -1.98403        1.13846
H         -0.97017       -1.98277        1.18213
H         -0.93372        1.60307       -1.23098
H         -3.42678        1.58871       -1.27326
H          0.93060       -2.15860       -0.81786
H          1.76485        2.86219       -0.17416
