20
18616864.log	Energy: -329677.6628087
C          3.83306       -0.47581        0.00291
C          2.53384       -0.17100        0.00598
N          1.99441        1.19519       -0.00119
C          0.69208        1.05903        0.00009
C         -0.38351        2.03293       -0.00228
C         -1.66021        1.60154       -0.00889
C         -2.02172        0.17011       -0.01121
C         -1.05918       -0.82077       -0.00338
C          0.33248       -0.43482        0.00629
N          1.43972       -1.14383        0.01043
N         -1.45389       -2.21098       -0.06565
N         -3.39009       -0.13071        0.08535
H          4.18710       -1.50127        0.00629
H          4.60956        0.28113       -0.00292
H         -0.10834        3.08977        0.00153
H         -2.48902        2.31424       -0.00106
H         -0.76279       -2.75065       -0.59033
H         -1.48768       -2.60654        0.87510
H         -3.64503       -1.09583       -0.11517
H         -4.03581        0.53416       -0.31303
