22
186694.log	Energy: -552879.9719317
C         -2.71398        1.93104        0.00230
C         -1.41821        2.39312        0.00618
C         -0.33490        1.46582        0.00456
C         -0.55838        0.06293        0.00857
C          0.57385       -0.81302       -0.00278
C          1.82985       -0.26518       -0.01474
C          2.05416        1.13352       -0.01027
N          1.00226        1.99503       -0.00094
O          1.15561        3.22447        0.00088
N          3.03739       -1.15545       -0.03272
O          2.83897       -2.34738       -0.16148
O          4.12158       -0.61692        0.08029
C         -1.92289       -0.37230        0.01287
C         -2.96938        0.54056        0.00371
N         -2.29279       -1.81099        0.02911
O         -1.43983       -2.63296        0.30809
O         -3.45486       -2.07362       -0.23111
H         -3.55640        2.62767       -0.00153
H         -1.18381        3.46853        0.00807
H          0.43171       -1.90992        0.00221
H          3.07868        1.54410       -0.00903
H         -4.01056        0.18181       -0.00357
