19
18679144.log	Energy: -559857.8577623
C          1.31692       -1.80913        0.04191
C          1.47998       -0.48027        0.09567
C          0.33652        0.45516       -0.02566
N          0.77527        1.78654       -0.12531
N          0.02272        2.79904       -0.24175
N         -0.44484        3.82040       -0.34974
C         -0.95028       -0.02562       -0.03023
N         -1.99910        0.92062       -0.18227
N         -3.20336        0.67287        0.10336
N         -4.32068        0.67609        0.27980
C         -1.22963       -1.48519        0.09274
O         -2.31338       -1.92160        0.38185
C         -0.02024       -2.42555       -0.17821
O         -0.18116       -3.55231       -0.55566
C          2.84108        0.11533        0.31668
O          3.33592        0.50644        1.34084
O          3.52862        0.11626       -0.86716
H          2.14900       -2.51894        0.11918
H          4.43485        0.53116       -0.78402
