28
188024.log	Energy: -501028.4740907
C         -4.84825       -1.09823        0.06480
O         -3.40687       -1.24711        0.02115
C         -2.64348       -0.10237        0.01617
C         -3.12146        1.18640        0.02982
C         -2.18251        2.25603        0.01688
C         -0.83194        2.02300       -0.00500
C         -0.30867        0.68957       -0.01461
C         -1.22693       -0.40087       -0.00497
C         -0.76082       -1.74066       -0.02064
C          0.59169       -2.00225       -0.03389
C          1.51741       -0.93209       -0.02693
C          1.09508        0.39268       -0.02536
C          2.11903        1.48284       -0.04513
O          1.88030        2.64297       -0.30411
C          3.53337        1.08550        0.26809
C          3.93227       -0.18463        0.27270
C          2.97805       -1.29717       -0.01551
O          3.36506       -2.42681       -0.21479
H         -5.18022       -2.14504        0.06262
H         -5.20168       -0.57195       -0.82681
H         -5.14909       -0.59165        0.98654
H         -4.18068        1.41684        0.04638
H         -2.56744        3.27766        0.02219
H         -0.13005        2.86496       -0.02850
H         -1.49463       -2.55297       -0.02299
H          0.97261       -3.02791       -0.05495
H          4.20511        1.92606        0.46575
H          4.96105       -0.49492        0.47324
