27
18865.log	Energy: -415474.8706534
C         -2.29022        1.73469       -0.00536
C         -3.53157        1.18059       -0.00808
C         -3.68585       -0.26327       -0.00516
C         -2.58475       -1.08800       -0.00752
C         -1.26329       -0.52255       -0.00047
N         -0.18917       -1.36292       -0.00089
C          1.05965       -0.82532       -0.00030
C          1.30239        0.59257        0.00353
C          0.18784        1.44698        0.00018
C         -1.10458        0.91213       -0.00225
C          2.65430        1.07263        0.01388
C          3.70433        0.18370        0.00750
C          3.46282       -1.24844       -0.00069
C          2.19455       -1.73166       -0.00486
N          5.04859        0.62668       -0.08118
N         -4.99521       -0.78737        0.08533
H         -2.15858        2.81781       -0.00520
H         -4.42619        1.80008        0.00264
H         -2.66523       -2.17367       -0.00261
H          0.33373        2.52692       -0.00221
H          2.81749        2.14618        0.01277
H          4.32045       -1.91995       -0.01911
H          1.97986       -2.80315       -0.01202
H          5.21591        1.58463        0.19340
H          5.74689        0.00252        0.29667
H         -5.10691       -1.76413       -0.14702
H         -5.74059       -0.21627       -0.28255
