18
18928234.log	Energy: -793251.7234121
C         -3.04006        0.62109        0.02320
C         -3.64158       -0.59184        0.01877
N         -2.91572       -1.80841       -0.01082
C         -1.60940       -1.75286       -0.02441
C         -0.82499       -0.51483       -0.00411
C          0.54760       -0.52287       -0.00967
C          1.40288        0.69972       -0.00511
N          2.69511        0.53796        0.02425
S          3.07415       -1.14750        0.01661
N          1.37353       -1.65096       -0.07692
S          0.69387        2.28167       -0.01438
C         -0.99706        1.96255        0.00274
C         -1.57919        0.74065        0.00493
H         -3.61715        1.54391        0.03975
H         -4.72693       -0.73298        0.03426
H         -1.06997       -2.70940       -0.06119
H          1.09357       -2.53110        0.34612
H         -1.58743        2.88306        0.01191
