23
189397.log	Energy: -542880.8084784
C         -3.10161       -2.25945        0.06269
C         -3.57504       -0.91088        0.03657
C         -2.70053        0.14367        0.00492
C         -1.28592       -0.07300       -0.00056
C         -0.81110       -1.42507        0.02272
C         -1.75805       -2.50791        0.05407
C          0.57096       -1.69446        0.01392
C          1.50436       -0.66021       -0.01500
C          1.05162        0.70521       -0.02248
C         -0.32715        0.98686       -0.00999
N         -0.74129        2.40138        0.01199
O         -1.77651        2.70177       -0.56071
O         -0.02457        3.18147        0.60633
O          1.88024        1.74503       -0.06489
N          2.92330       -0.97991       -0.03360
O          3.26371       -2.14410       -0.01264
O          3.71216       -0.02905       -0.07305
H         -3.82838       -3.07137        0.08704
H         -4.65443       -0.73717        0.03959
H         -3.08327        1.17282       -0.03623
H         -1.37497       -3.53010        0.07094
H          0.92888       -2.73603        0.02786
H          2.89255        1.48193       -0.07940
