22
18970466.log	Energy: -366626.3232292
C         -2.92949       -1.83034       -0.00683
C         -1.64239       -1.07474       -0.00898
C         -0.46687       -1.74086       -0.00259
C          0.78821       -1.02314        0.00153
N          2.01899       -1.41797        0.00407
C          2.87327       -0.16885        0.00343
O          4.05743       -0.14671        0.00360
N          1.95394        1.00879       -0.00202
C          0.73647        0.55137       -0.00097
C         -0.55300        1.19508       -0.01295
C         -1.69170        0.42017       -0.00879
N         -2.95852        1.01515        0.09108
C         -0.58319        2.68764       -0.01400
H         -3.52201       -1.64235       -0.91366
H         -3.54758       -1.57417        0.86940
H         -2.77554       -2.92047        0.03809
H         -0.40460       -2.83316        0.00167
H         -3.01819        2.00952       -0.08167
H         -3.75356        0.50617       -0.26174
H         -0.99637        3.08184        0.92598
H          0.43248        3.11406       -0.10476
H         -1.16271        3.09248       -0.85315
