36
189829.log	Energy: -457507.6271278
C          2.83254       -2.14644        0.93554
C          3.66483       -1.01762        0.41030
C          4.96199       -1.22013        0.09881
C          5.88495       -0.19892       -0.42308
O          7.01324       -0.46672       -0.78550
C          3.01574        0.29306        0.26888
C          1.68618        0.49816        0.25745
C          1.09804        1.82533        0.13031
C         -0.22699        2.08651        0.05098
C         -0.70456        3.50180       -0.06060
C         -1.24504        1.02534        0.07397
C         -2.54448        1.19582       -0.21192
C         -3.52800        0.10015       -0.18069
C         -4.77978        0.31420        0.42226
C         -5.72426       -0.71330        0.45713
C         -5.43470       -1.95621       -0.11634
C         -4.19383       -2.17013       -0.72376
C         -3.24077       -1.14874       -0.75560
H          3.41560       -3.06504        1.09388
H          2.02052       -2.40308        0.24060
H          2.37544       -1.88914        1.90216
H          5.41997       -2.20695        0.21001
H          5.50672        0.83798       -0.46792
H          3.70300        1.14053        0.16744
H          0.98007       -0.33584        0.34143
H          1.81229        2.65403        0.10256
H         -1.24219        3.66831       -1.00545
H         -1.39040        3.75557        0.76068
H          0.11483        4.23267       -0.02930
H         -0.87017        0.03321        0.35542
H         -2.95851        2.17047       -0.48407
H         -5.01077        1.28014        0.86766
H         -6.69182       -0.54476        0.92823
H         -6.17522       -2.75345       -0.09256
H         -3.96803       -3.13613       -1.17325
H         -2.27833       -1.31806       -1.23534
