28
190008.log	Energy: -501027.9310616
C         -5.15285       -0.78239        0.00610
O         -3.76438       -1.19331        0.00427
C         -2.79488       -0.21950        0.00075
C         -1.50576       -0.72020        0.00486
C         -0.39405        0.16396        0.00034
C         -0.64905        1.57169       -0.00350
C         -2.00088        2.04902       -0.00835
C         -3.06248        1.18475       -0.00715
C          0.43384        2.49307       -0.00303
C          1.73192        2.04029        0.00078
C          1.99858        0.64766        0.00176
C          0.97315       -0.28780        0.00101
C          1.30475       -1.74606       -0.00191
O          0.48493       -2.63944        0.00069
C          2.76047       -2.11860       -0.00923
C          3.73878       -1.21654       -0.00964
C          3.44989        0.24715        0.00369
O          4.34328        1.06518        0.01659
H         -5.66879       -1.75290       -0.00412
H         -5.38468       -0.20997       -0.89609
H         -5.38506       -0.22817        0.91955
H         -1.35210       -1.80823        0.01121
H         -2.16843        3.12781       -0.01265
H         -4.08468        1.55171       -0.01182
H          0.22135        3.56378       -0.00634
H          2.57877        2.73389        0.00258
H          2.94381       -3.19792       -0.01565
H          4.80041       -1.47839       -0.01784
