30
19037553.log	Energy: -429322.5418168
C         -3.82083       -0.93678       -0.43670
C         -3.40454        0.53307       -0.56206
C         -2.38878        0.92586        0.51790
N         -1.20764        0.00683        0.47629
C         -1.58854       -1.42911        0.65221
C         -2.58945       -1.85052       -0.43289
C          0.01037        0.42239        0.23409
C          1.25247       -0.28116        0.11894
C          1.61529       -1.63721        0.19078
C          2.93482       -2.01342        0.02710
C          3.93760       -1.03612       -0.21375
C          3.63421        0.30673       -0.29434
C          2.28584        0.70898       -0.13011
N          1.81307        2.01033       -0.18382
C          0.46862        2.02525        0.01635
O         -0.37038        2.88587        0.06544
H         -4.49301       -1.21182       -1.27306
H         -4.41221       -1.08831        0.48746
H         -2.97695        0.72474       -1.56813
H         -4.29038        1.19475       -0.48478
H         -2.84006        0.87030        1.53357
H         -2.06527        1.99456        0.37331
H         -2.03335       -1.54998        1.66686
H         -0.68396       -2.08599        0.62124
H         -2.89047       -2.90331       -0.26670
H         -2.09915       -1.82837       -1.42813
H          0.84224       -2.38970        0.37746
H          3.22306       -3.05904        0.08092
H          4.97018       -1.36981       -0.33656
H          4.39187        1.06705       -0.47936
