29
19076037.log	Energy: -418565.5949606
C         -4.04445       -0.71557        0.09557
C         -3.54622       -0.01005       -1.00434
C         -2.22119        0.43383       -1.01199
C         -1.39072        0.17146        0.08757
C         -1.88865       -0.54122        1.18875
C         -3.21499       -0.98003        1.19016
C          0.01788        0.64086        0.08495
C          0.31696        1.94458        0.16398
C          1.70835        2.49957        0.16789
O          1.69458        3.91019       -0.09488
C          1.03314       -0.42830       -0.01471
C          1.10134       -1.23973       -1.16851
N          2.01219       -2.23313       -1.31175
C          2.88302       -2.45790       -0.29274
C          2.87470       -1.70241        0.89121
C          1.93694       -0.67644        1.02828
H         -5.07693       -1.06030        0.09895
H         -4.19119        0.19327       -1.85788
H         -1.83397        0.98327       -1.86790
H         -1.24163       -0.75063        2.03881
H         -3.60293       -1.53119        2.04578
H         -0.46703        2.70349        0.24720
H          2.16718        2.44858        1.17787
H          2.37258        2.00062       -0.56303
H          1.33933        4.08816       -0.98894
H          0.40653       -1.09225       -2.00454
H          3.60133       -3.27150       -0.44588
H          3.58542       -1.91551        1.68625
H          1.90258       -0.07752        1.93814
