27
19076023.log	Energy: -417835.5537061
C         -4.01204       -0.76699       -0.18415
C         -3.65393        0.14873        0.81035
C         -2.34707        0.63905        0.87490
C         -1.38909        0.20212       -0.05281
C         -1.74762       -0.72254       -1.04624
C         -3.05878       -1.19979       -1.11185
C          0.00148        0.71584        0.01644
C          0.25975        2.03332        0.02291
C          1.61245        2.63340        0.12021
O          1.81792        3.79061       -0.17697
C          1.05431       -0.32148        0.07414
C          2.05747       -0.39303       -0.91589
N          3.03757       -1.32977       -0.89789
C          3.04532       -2.23212        0.11763
C          2.07771       -2.23410        1.13654
C          1.06946       -1.26979        1.10921
H         -5.03265       -1.14333       -0.23609
H         -4.39579        0.48562        1.53340
H         -2.07168        1.35783        1.64599
H         -1.00525       -1.06361       -1.76745
H         -3.33795       -1.91137       -1.88807
H         -0.54841        2.76865       -0.05871
H          2.41952        1.97861        0.48933
H          2.07901        0.31317       -1.75615
H          3.85620       -2.97051        0.09815
H          2.11527       -2.97731        1.93054
H          0.29886       -1.24996        1.88171
