25
19104607.log	Energy: -417119.6672412
C          4.09884       -0.86239        0.03928
C          3.74435        0.39117        0.54875
C          2.41432        0.81255        0.51777
C          1.41945       -0.02902       -0.01606
C          1.78398       -1.28499       -0.53761
C          3.11791       -1.69578       -0.50773
C          0.03396        0.39736       -0.03560
C         -1.12555       -0.29264        0.04652
C         -1.46683       -1.68668        0.22970
C         -2.76360       -2.06358        0.27098
C         -3.85575       -1.09935        0.13403
C         -3.63517        0.22268       -0.02511
C         -2.26727        0.71560       -0.06931
N         -1.83804        1.94677       -0.20127
C         -0.36441        1.90201       -0.17750
O          0.35555        2.84951       -0.24165
H          5.13816       -1.18667        0.06342
H          4.50894        1.04509        0.96755
H          2.14547        1.80101        0.89896
H          1.02794       -1.93163       -0.98044
H          3.39500       -2.66714       -0.91510
H         -0.64602       -2.39704        0.34176
H         -3.04815       -3.10701        0.41176
H         -4.87096       -1.50217        0.17004
H         -4.43384        0.96041       -0.12461
