25
193287.log	Energy: -380887.9762886
C          3.59809       -1.11053        0.47292
C          3.88965        0.24529        0.31043
C          2.87970        1.14012       -0.04611
C          1.56751        0.67907       -0.26418
C          1.26196       -0.69429       -0.11681
C          2.29640       -1.56949        0.25844
C         -0.06026       -1.27683       -0.35857
C         -1.26324       -0.67748       -0.24622
C         -2.49112       -1.46915       -0.42669
C         -3.69619       -1.00798       -0.03945
C         -3.83085        0.31705        0.55863
C         -2.77741        1.15112        0.62696
C         -1.45880        0.75851        0.07624
N         -0.63505        1.75631       -0.10437
N          0.59210        1.63917       -0.72918
H          4.38054       -1.80903        0.76191
H          4.90513        0.60927        0.46568
H          3.11688        2.19670       -0.16063
H          2.07986       -2.63136        0.38567
H         -0.02488       -2.34029       -0.63306
H         -2.37458       -2.45698       -0.87233
H         -4.60410       -1.59793       -0.15479
H         -4.81212        0.59635        0.94025
H         -2.84529        2.15228        1.05630
H          0.98663        2.60023       -0.78782
