26
19356865.log	Energy: -508101.5344694
C         -4.96800       -0.33461       -0.05916
C         -3.58159       -0.83878        0.12424
O         -3.17037       -1.86841       -0.37909
C         -2.64567        0.00513        0.96533
C         -1.85322        0.96912        0.08573
O         -2.43956        1.89396       -0.43647
C         -0.39640        0.78849       -0.01565
C          0.26698       -0.43305       -0.09717
C          1.75130       -0.41564       -0.03868
N          2.60621       -1.37590        0.01591
C          3.99436       -0.71222        0.06113
O          5.00885       -1.31741        0.11000
N          3.78069        0.74668        0.03559
C          2.49889        0.97206       -0.02553
C          1.69159        2.14810       -0.07382
C          0.33880        2.03928       -0.07208
N         -0.30207       -1.65318       -0.26812
H         -5.52369       -0.92258       -0.80792
H         -4.96778        0.71808       -0.40038
H         -5.55067       -0.36468        0.87299
H         -3.21235        0.61728        1.70292
H         -1.98872       -0.63479        1.58623
H          2.20210        3.11284       -0.11456
H         -0.28073        2.94910       -0.11956
H          0.27046       -2.49290       -0.30409
H         -1.31612       -1.79803       -0.38092
