28
19356142.log	Energy: -418400.0531189
C          2.91043       -2.12013       -0.24221
C          3.93429       -1.20344       -0.00613
C          3.63769        0.14915        0.16676
C          2.31275        0.59156        0.10714
C          1.26025       -0.35716       -0.04397
C          1.57835       -1.70010       -0.26076
C         -0.11113        0.18915       -0.04812
C         -1.35657       -0.33402        0.02994
C         -1.83946       -1.67933        0.25142
C         -3.17112       -1.89630        0.25687
C         -4.13933       -0.82441        0.01737
C         -3.76231        0.46073       -0.14565
C         -2.35022        0.76362       -0.10113
C         -1.72520        1.95209       -0.18592
C         -0.31971        1.64684       -0.08503
C          0.74042        2.45808        0.03820
N          2.02001        1.97493        0.21643
H          3.14883       -3.16643       -0.41703
H          4.96707       -1.54073        0.02343
H          4.44705        0.85436        0.33038
H          0.80840       -2.43132       -0.47776
H         -1.14999       -2.48003        0.48021
H         -3.56627       -2.88620        0.46489
H         -5.18908       -1.10069       -0.01675
H         -4.48106        1.25165       -0.32228
H         -2.16526        2.92847       -0.28610
H          0.65513        3.53835        0.04615
H          2.79025        2.63005        0.16717
