31
19352903.log	Energy: -489305.9887527
C          0.17840       -2.93911       -0.10354
N         -0.02028       -1.47023       -0.09191
C         -1.33399       -0.91700       -0.05496
C         -2.43875       -1.72060       -0.09963
C         -3.76451       -1.14147       -0.07285
C         -3.94921        0.18558        0.01772
C         -2.80689        1.15154        0.09402
C         -1.42829        0.54421        0.01881
C         -0.30623        1.33737        0.02207
C         -0.36344        2.79558        0.08904
C          0.75887        3.55073        0.07833
C          2.06687        2.93305       -0.01008
C          2.18819        1.58636       -0.06625
C          1.01571        0.72518       -0.03697
C          1.10741       -0.65334       -0.05889
C          2.45643       -1.30337       -0.07669
O          3.34132       -1.20973       -0.89073
O          2.64346       -2.07401        1.04904
H          0.75594       -3.26662        0.78317
H          0.70517       -3.25427       -1.02098
H         -0.79135       -3.47504       -0.07907
H         -2.37135       -2.80224       -0.15403
H         -4.60240       -1.83563       -0.12747
H         -4.93644        0.63635        0.04184
H         -2.91871        1.89505       -0.73020
H         -2.89347        1.72891        1.04475
H         -1.34679        3.26082        0.14794
H          0.71610        4.63793        0.13060
H          2.93784        3.58620       -0.03514
H          3.16911        1.11576       -0.15362
H          3.55657       -2.47375        1.08851
