25
193908.log	Energy: -437922.9002776
C          3.53912        0.95733        0.01613
C          2.34508        1.65237        0.01279
C          1.11140        0.95678        0.00441
C          1.14745       -0.46065       -0.00155
C          2.33095       -1.19248        0.00271
C          3.54444       -0.47018        0.00529
N          4.75285       -1.15193       -0.04745
O         -0.01973       -1.21291       -0.00451
C         -1.23397       -0.51459       -0.00454
C         -2.35655       -1.25443       -0.00263
C         -3.67510       -0.58243        0.00194
N         -4.82605       -1.16956        0.01974
C         -3.65744        0.90591       -0.01169
C         -2.52278        1.62078       -0.01262
C         -1.20295        0.96971       -0.00512
N         -0.10026        1.67144        0.00015
H          4.48194        1.49828        0.01817
H          2.32875        2.74626        0.01732
H          2.30151       -2.27776       -0.00601
H          4.78027       -2.14841        0.08181
H          5.61893       -0.66360        0.09743
H         -2.33005       -2.34097       -0.00229
H         -4.86633       -2.18431        0.03032
H         -4.64407        1.38119       -0.01890
H         -2.51686        2.71428       -0.01959
