30
194753.log	Energy: -501789.1151397
C          5.89354       -1.26062        0.20817
C          4.55780       -0.59792        0.13679
C          3.40916       -1.32990       -0.07366
C          2.13694       -0.68531       -0.13171
C          2.06123        0.72406        0.03347
C          3.26795        1.46288        0.25577
C          4.47807        0.82316        0.30621
C          0.79094        1.36558       -0.02664
C         -0.36021        0.63202       -0.24443
C         -0.28272       -0.78464       -0.40822
C          0.92929       -1.42322       -0.35329
C         -1.65820        1.35348       -0.30097
O         -1.74744        2.55758       -0.19045
C         -2.88379        0.51938       -0.54020
C         -3.67398        0.09350        0.44451
C         -4.87971       -0.71014        0.15192
O         -5.24382       -1.22776       -0.87884
O         -5.63580       -0.84471        1.29374
H          6.71242       -0.59218       -0.09058
H          5.95532       -2.14786       -0.43714
H          6.10760       -1.59408        1.23560
H          3.45248       -2.41021       -0.19987
H          3.20106        2.54391        0.38443
H          5.39652        1.38299        0.47582
H          0.73082        2.45249        0.09899
H         -1.19776       -1.35402       -0.57774
H          0.99531       -2.50361       -0.47863
H         -3.08782        0.30859       -1.59878
H         -3.50156        0.31277        1.50412
H         -6.46583       -1.37354        1.14188
