26
19597022.log	Energy: -394030.1888735
C         -0.93121        2.68059        0.87788
C         -0.89993        1.78628       -0.10728
C         -0.30535        0.43942        0.02985
C         -1.11379       -0.66249        0.23577
C         -2.58473       -0.54083        0.36882
N         -3.29456       -0.28271       -0.68780
O         -4.65553       -0.21082       -0.40032
C         -0.55139       -1.97060        0.35981
C          0.80340       -2.14962        0.27326
C          1.67225       -1.03219        0.05894
C          3.08993       -1.20595       -0.03403
C          3.91169       -0.12710       -0.24103
C          3.36049        1.18090       -0.36622
C          2.00481        1.37490       -0.28033
C          1.12083        0.26980       -0.06310
H         -0.51525        2.50338        1.86064
H         -1.38151        3.65777        0.77466
H         -1.33429        1.98058       -1.09343
H         -2.98080       -0.69159        1.38580
H         -5.06802       -0.01792       -1.30601
H         -1.22203       -2.81539        0.51624
H          1.24172       -3.14287        0.36353
H          3.49907       -2.21071        0.06184
H          4.99129       -0.25031       -0.31375
H          4.03532        2.01960       -0.53063
H          1.57870        2.37437       -0.37586
