25
19782482.log	Energy: -404019.6436998
C          4.49319       -0.55084        0.49341
O          3.28326       -1.10645       -0.07637
C          2.16194       -0.30818       -0.12754
C          0.99695       -0.97778       -0.35015
C         -0.22679       -0.23938       -0.51076
C         -1.46840       -0.71567       -0.83542
C         -2.48441        0.38177       -1.18133
C         -2.39769        0.87161        0.27153
N         -2.81081        0.09145        1.24671
C         -2.99550       -1.29286        0.85934
C         -2.21032       -1.79490       -0.14000
N         -1.28469        1.81814        0.38636
C         -0.19993        1.23592       -0.07981
C          1.11356        1.89356       -0.02617
C          2.23716        1.15224       -0.02876
H          5.13908       -1.43883        0.54289
H          4.30444       -0.15212        1.49389
H          4.91651        0.19994       -0.17940
H          0.97253       -2.06203       -0.45212
H         -2.16752        1.09851       -1.95055
H         -3.46907        0.00938       -1.49898
H         -3.65384       -1.86854        1.50389
H         -2.09856       -2.83466       -0.39484
H          1.11741        2.98490        0.03072
H          3.22289        1.61494        0.01783
