28
1980698.log	Energy: -498638.6630003
C         -2.85280       -1.89243        0.02415
C         -1.46338       -1.87797        0.02889
C         -0.73545       -0.67102        0.01699
C         -1.46071        0.53741        0.00005
C         -2.85782        0.54223       -0.00845
C         -3.56873       -0.67449       -0.00018
N         -4.97672       -0.67697       -0.10834
C         -0.77662        1.86079       -0.00629
O         -1.36822        2.91188       -0.02428
C          0.77670        1.86077        0.01780
O          1.36830        2.91170        0.04820
C          1.46084        0.53729        0.00888
C          0.73564       -0.67121        0.01450
C          1.46345       -1.87795        0.01213
C          2.85291       -1.89294        0.00502
C          3.56842       -0.67452       -0.00695
C          2.85790        0.54224       -0.00144
N          4.97619       -0.67585       -0.11676
H         -3.38607       -2.84097        0.02463
H         -0.92599       -2.82998        0.04129
H         -3.38582        1.49928       -0.03349
H         -5.45200        0.17399        0.15641
H         -5.45467       -1.50340        0.21840
H          0.92602       -2.83012        0.01414
H          3.38615       -2.84137       -0.00613
H          3.38613        1.49945       -0.01665
H          5.45489       -1.50642        0.19790
H          5.45237        0.17168        0.15718
