24
19862969.log	Energy: -242696.0624935
C          1.29564       -1.54627        0.32413
C         -0.04054       -1.33063       -0.31643
C         -1.20736       -1.36131        0.33993
C         -2.43566       -0.73807       -0.25709
C         -2.42386        0.79267        0.01852
C         -1.08728        1.39322       -0.31785
C         -0.04124        1.28046        0.51165
C          1.33871        1.65017        0.18359
C          2.34185        0.81886       -0.12160
C          2.38333       -0.66906       -0.32001
H          1.24948       -1.33557        1.41192
H          1.58956       -2.61294        0.23582
H          0.00245       -1.03580       -1.36766
H         -1.29857       -1.69893        1.36772
H         -2.48402       -0.91387       -1.34937
H         -3.35696       -1.18014        0.16451
H         -3.22951        1.27340       -0.56696
H         -2.67381        0.96976        1.08364
H         -1.00088        1.83628       -1.30619
H         -0.15359        0.85229        1.51355
H          1.52743        2.72892        0.23067
H          3.32847        1.26445       -0.31054
H          2.38921       -0.85231       -1.41950
H          3.36915       -1.03581        0.04348
