26
19958892.log	Energy: -427854.1494215
C          3.83968        0.82042        0.03126
N          2.40232        0.57297        0.36272
C          1.38348        1.51161        0.07655
C          0.10850        1.04579        0.02186
C         -0.20406       -0.40813        0.07102
C          0.78756       -1.32361        0.11201
C          2.15546       -0.84248        0.10638
C          3.33883       -1.43628       -0.18251
O          4.38720       -0.50403       -0.27088
C         -1.66324       -0.50309        0.02826
C         -2.53369       -1.58150        0.06337
C         -3.91567       -1.33255        0.01917
C         -4.40888       -0.02711       -0.05931
C         -3.55088        1.08232       -0.09549
C         -2.18175        0.83487       -0.05853
N         -1.11426        1.78260       -0.17472
H          4.02446        1.45122       -0.85575
H          4.37627        1.17440        0.93339
H          1.66441        2.56058        0.02024
H          0.62064       -2.39629        0.10537
H          3.67462       -2.43624       -0.33928
H         -2.15620       -2.60045        0.12560
H         -4.60948       -2.17014        0.04571
H         -5.48653        0.13824       -0.09303
H         -3.94578        2.09076       -0.16211
H         -1.20846        2.68948        0.26664
