25
19988613.log	Energy: -684367.9100623
C          4.65601        1.43975        0.10838
N          4.06692        0.13235       -0.29522
C          4.84564       -1.03518        0.20575
C          2.67404        0.03224       -0.08827
N          1.97662       -1.17704       -0.06139
N          0.67389       -0.80261       -0.04208
C         -0.45955       -1.74946       -0.03623
C         -1.75876       -0.99187       -0.00789
C         -2.98064       -1.54448        0.01411
S         -4.27142       -0.34781        0.04253
C         -3.12720        1.08256        0.02335
O         -3.52031        2.19787        0.03340
C         -1.73678        0.49622       -0.00409
N         -0.69118        1.26475       -0.02164
C          0.56112        0.61990       -0.04517
N          1.81285        1.15217       -0.06255
H          5.68109        1.50148       -0.29112
H          4.68121        1.60493        1.19602
H          4.07266        2.26596       -0.34497
H          4.86389       -1.12464        1.30270
H          4.42251       -1.96943       -0.20896
H          5.88147       -0.95221       -0.16233
H         -0.37240       -2.42892        0.85128
H         -0.40122       -2.40513       -0.94433
H         -3.24105       -2.59543        0.01456
