28
20042466.log	Energy: -428598.6007815
C          4.08241       -0.53196        0.34815
C          3.46658        0.39248        1.19850
C          2.14241        0.77813        0.97530
C          1.43101        0.23658       -0.10634
C          2.04541       -0.69524       -0.95562
C          3.37040       -1.07410       -0.72671
C          0.03141        0.66478       -0.34620
C         -0.27333        1.90540       -0.74972
C         -1.67176        2.41410       -0.96618
O         -2.19503        2.95347        0.25433
C         -0.99795       -0.37938       -0.08369
N         -1.88146       -0.15313        0.94308
C         -2.79702       -1.12332        1.20200
C         -2.85239       -2.30829        0.45264
C         -1.92615       -2.45580       -0.59144
N         -0.99913       -1.50252       -0.86957
H          5.11413       -0.82989        0.52428
H          4.01954        0.81282        2.03691
H          1.66087        1.49586        1.63863
H          1.48205       -1.12472       -1.78670
H          3.84851       -1.79588       -1.38697
H          0.51719        2.64270       -0.91576
H         -1.69980        3.28238       -1.65403
H         -2.35949        1.63222       -1.34037
H         -2.17491        2.26150        0.96193
H         -3.49268       -0.92738        2.02861
H         -3.58534       -3.07981        0.67077
H         -1.91186       -3.34827       -1.23079
