27
200522.log	Energy: -508589.6875818
C         -3.16067       -2.22806       -0.40848
C         -4.09806       -1.20645       -0.21310
C         -3.66420        0.09491        0.03096
C         -2.28777        0.38010        0.05889
C         -1.33401       -0.63626       -0.13341
C         -1.79522       -1.94727       -0.36293
C          0.12179       -0.44794       -0.06028
N          0.94716       -1.27697        0.62225
C          2.24579       -0.79234        0.40501
C          3.49198       -1.25974        0.87880
C          4.62549       -0.57328        0.49251
C          4.55979        0.57092       -0.35398
C          3.35939        1.05539       -0.83639
C          2.19176        0.36539       -0.45188
N          0.83712        0.55570       -0.76033
N         -1.92420        1.79453        0.32337
O         -2.50294        2.36245        1.22772
O         -1.09792        2.32032       -0.41165
H         -3.49868       -3.25044       -0.59149
H         -5.16575       -1.42897       -0.24264
H         -4.38944        0.89535        0.20915
H         -1.06251       -2.75257       -0.48986
H          3.52848       -2.13400        1.52675
H          5.60524       -0.90241        0.83756
H          5.49231        1.06961       -0.61959
H          3.30505        1.92855       -1.47960
H          0.43541        1.34766       -1.25022
