19
20067246.log	Energy: -321307.5644157
C         -2.10558       -2.44048        0.47787
C         -2.24439       -1.37789       -0.31340
C         -1.45833       -0.14004       -0.16660
C         -2.04981        1.07831       -0.09287
C         -1.28690        2.31423        0.06804
C          0.06002        2.33381        0.14660
C          0.79416        1.08194        0.06277
N          2.08315        0.86913        0.10054
C          2.28939       -0.59542       -0.04111
O          3.34749       -1.14291       -0.04882
C          0.88972       -1.22031       -0.17144
C         -0.00402       -0.22332       -0.10476
H         -1.40103       -2.49358        1.29829
H         -2.69830       -3.33937        0.36732
H         -2.97496       -1.35851       -1.12841
H         -3.13542        1.18033       -0.14187
H         -1.86886        3.23822        0.12425
H          0.64556        3.24668        0.27231
H          0.76547       -2.27926       -0.29562
