26
20131526.log	Energy: -451090.9423596
C          4.08937       -0.62148        0.82354
C          4.11623        0.25519       -0.26791
C          2.93156        0.69292       -0.85555
C          1.69201        0.23971       -0.34887
C          1.66238       -0.63221        0.75430
C          2.86226       -1.05652        1.32897
N          0.51403        0.61859       -1.07405
C         -0.77131        0.43795       -0.44950
C         -1.40555       -0.77980       -0.49094
C         -2.82021       -0.92942        0.06413
O         -3.43746       -1.95478       -0.11256
C         -3.37049        0.23941        0.79621
C         -2.73597        1.41138        0.82950
C         -1.42295        1.63144        0.12645
O         -0.95086        2.74658        0.04083
N         -0.83147       -1.94101       -0.94768
H          5.01834       -0.95512        1.27733
H          5.07190        0.60349       -0.65957
H          2.96411        1.37721       -1.69973
H          0.71719       -0.96757        1.17225
H          2.83703       -1.73108        2.18461
H          0.58449        1.56044       -1.49181
H         -4.33149        0.06168        1.28869
H         -3.12422        2.28950        1.35426
H          0.04133       -1.89435       -1.45832
H         -1.41404       -2.75307       -1.10382
