27
20139533.log	Energy: -381518.5865925
C         -3.94593        0.44163       -0.02168
C         -2.92140        1.39464       -0.00969
C         -1.58576        0.98743        0.01550
C         -1.27005       -0.38024        0.02912
C         -2.29652       -1.33368        0.01771
C         -3.63207       -0.92053       -0.00782
C          0.17131       -0.84227        0.04653
N          0.77245       -0.41712        1.42397
C          2.06886        0.17591        1.21555
C          2.08612        1.50642        0.60774
C          2.07999        1.44617       -0.75504
C          2.05161        0.06493       -1.23470
N          0.75047       -0.53595       -1.37437
C          3.02773       -0.81159       -0.67645
C          3.03722       -0.74746        0.72137
H         -4.98656        0.76182       -0.03962
H         -3.16612        2.45586       -0.01902
H         -0.78966        1.73148        0.02339
H         -2.05648       -2.39706        0.02747
H         -4.42869       -1.66358       -0.01692
H          0.28994       -1.96163        0.09236
H          0.13378        0.21628        1.91796
H          2.01572        2.40500        1.19822
H          2.00672        2.28689       -1.42447
H          0.10533        0.06280       -1.90406
H          3.48501       -1.61598       -1.23276
H          3.50395       -1.49855        1.34140
