25
20199652.log	Energy: -417109.3734183
C         -4.12163       -0.77924       -0.02270
C         -3.26949       -1.08461        1.04358
C         -1.97440       -0.56161        1.07922
C         -1.53147        0.27674        0.04461
C         -2.38716        0.58537       -1.02367
C         -3.67888        0.05366       -1.05532
C         -0.16267        0.83634        0.08076
C          0.07523        2.16543        0.19440
C          1.42914        2.71730        0.23170
C          2.53201        1.94401        0.15360
C          2.38427        0.50300        0.02229
N          3.30130       -0.42252       -0.07799
C          2.59399       -1.72599       -0.19312
O          3.12760       -2.78567       -0.30140
C          1.08931       -1.41163       -0.14269
C          0.96286       -0.08310       -0.01389
H         -5.13000       -1.18985       -0.04843
H         -3.61531       -1.73210        1.84863
H         -1.31097       -0.79981        1.90970
H         -2.04180        1.23150       -1.82967
H         -4.34201        0.28855       -1.88711
H         -0.74731        2.87982        0.26890
H          1.50690        3.80341        0.33054
H          3.54954        2.33932        0.18297
H          0.35429       -2.19175       -0.21092
