19
20201077.log	Energy: -603917.1905635
C          2.13681       -2.02497        0.13528
C          3.19089       -1.12898       -0.02160
C          2.93509        0.24436       -0.12509
C          1.61574        0.70465       -0.08196
C          0.52568       -0.20507        0.07164
C          0.81176       -1.56680        0.18757
C         -0.82942        0.35013        0.10783
S         -2.12240       -0.47553       -0.05835
O         -2.09575       -1.89149       -0.18475
O         -3.37857        0.19297       -0.04603
C         -0.90055        1.81172        0.24309
N          0.12210        2.60870        0.11715
N          1.34581        2.10749       -0.26454
H          2.33455       -3.09237        0.21861
H          4.21717       -1.48903       -0.06539
H          3.76098        0.94133       -0.25038
H          0.01629       -2.30543        0.31213
H         -1.87016        2.27393        0.47456
H          2.10285        2.74459        0.02158
