26
20212675.log	Energy: -451087.3903611
C         -4.05107       -0.46568        0.07661
C         -3.33912       -0.92293       -1.03737
C         -1.94321       -0.86091       -1.05186
C         -1.26359       -0.33018        0.05397
C         -1.97373        0.12881        1.17267
C         -3.36889        0.05754        1.18026
C          0.23183       -0.28117        0.04902
C          0.90298       -1.45166        0.13337
C          2.32967       -1.72999        0.11890
O          3.31265       -1.04295        0.30589
O          2.51766       -3.07545       -0.14411
N          0.75557        1.02724       -0.06604
C          2.07354        1.49854        0.19166
C          2.06077        2.85742       -0.05431
N          0.77304        3.27038       -0.46415
C         -0.00166        2.18871       -0.46617
H         -5.14013       -0.51847        0.08489
H         -3.87318       -1.33068       -1.89585
H         -1.38582       -1.22142       -1.91732
H         -1.43987        0.53711        2.03192
H         -3.92565        0.41020        2.04871
H          0.30205       -2.37777        0.20731
H          3.48197       -3.32250       -0.15563
H          2.87769        0.84958        0.52027
H          2.86293        3.57221        0.02556
H         -1.04788        2.13466       -0.73326
