24
20267.log	Energy: -393366.5851194
C         -2.95491       -1.54352       -0.00596
C         -3.56035       -0.29080        0.00457
C         -2.77637        0.88267        0.00777
C         -1.40214        0.75260        0.00439
C         -0.77419       -0.53472       -0.00156
C         -1.55101       -1.68167       -0.01093
C          0.68630       -0.34547        0.00146
C          0.96300        1.05761       -0.00516
C         -0.34762        1.81763       -0.00001
O         -0.49696        3.01184        0.00432
C          2.24298        1.55641       -0.00759
C          3.31529        0.62860       -0.00277
C          3.08345       -0.73354        0.01007
C          1.74956       -1.25180        0.00924
N          1.55215       -2.64419       -0.06746
H         -3.57231       -2.44284       -0.01392
H         -4.64561       -0.20733        0.00804
H         -3.24540        1.86761        0.01181
H         -1.10474       -2.67268       -0.03460
H          2.43375        2.62851       -0.01347
H          4.33853        1.00733       -0.00825
H          3.92066       -1.42959        0.00675
H          0.63740       -2.98869        0.20019
H          2.30446       -3.23167        0.26009
