28
202919.log	Energy: -413244.0001036
C          5.38542        0.30748        0.54552
C          3.89943        0.00488        0.71206
C          3.15251        0.06435       -0.63114
C          1.69507       -0.23588       -0.45012
C          0.74319        0.75260       -0.34567
C         -0.62353        0.41230       -0.16826
C         -1.70716        1.36241       -0.04954
N         -2.99814        0.97029        0.11875
C         -3.22932       -0.40964        0.20042
N         -2.27671       -1.39426        0.11037
C         -0.98010       -0.98050       -0.08095
N         -0.00248       -1.97701       -0.18829
C          1.25863       -1.60487       -0.36348
N         -4.53999       -0.79902        0.36279
N         -1.48520        2.72989       -0.05471
H          5.87207       -0.40726       -0.12820
H          5.90812        0.25515        1.50782
H          5.55372        1.31010        0.13703
H          3.76733       -0.99504        1.17093
H          3.44497        0.72206        1.42376
H          3.29379        1.06145       -1.09476
H          3.60603       -0.65172       -1.34735
H          1.03149        1.80238       -0.39390
H          1.99941       -2.41491       -0.44345
H         -5.26288       -0.11158        0.49137
H         -4.76382       -1.77522        0.47873
H         -0.61692        3.10192       -0.39529
H         -2.28057        3.35463       -0.06207
