25
20303032.log	Energy: -458593.9229695
C         -3.50012       -1.54474        0.10721
C         -2.31114       -1.78078       -0.49561
C         -1.27017       -0.76167       -0.51907
C         -0.01224       -0.98443       -0.99446
N          0.97538        0.07401       -1.10013
N          0.39511        1.35731       -0.92804
N         -0.72240        1.56614       -0.08446
C         -1.60377        0.54054        0.05332
C         -2.88160        0.73399        0.71789
C         -3.78712       -0.27112        0.74318
O         -0.81133        2.68934        0.40933
N          2.07813       -0.18083       -0.23501
C          2.09903       -0.76990        1.05578
C          3.43780       -0.84845        1.40989
N          4.24774       -0.33653        0.38060
C          3.43184        0.05777       -0.60758
H         -4.28251       -2.30540        0.13457
H         -2.08945       -2.73105       -0.98029
H          0.34947       -1.94769       -1.35755
H          1.09716        2.13371       -0.86491
H         -3.06622        1.71084        1.17253
H         -4.75342       -0.15510        1.23212
H          1.21027       -1.06568        1.57750
H          3.87968       -1.22827        2.31584
H          3.71281        0.48599       -1.55844
