14
20313316.log	Energy: -308640.2399503
C         -1.29093       -1.33287        0.67697
C         -1.29157       -1.33346       -0.67453
C         -0.57000       -0.00053       -0.81756
C         -1.28822        1.33448       -0.67661
C         -1.28724        1.33570        0.67489
C         -0.57019        0.00072        0.81704
O          0.79370        0.00038        1.17499
C          1.58340       -0.00108        0.00001
O          2.76786       -0.00062       -0.00026
O          0.79360       -0.00257       -1.17511
H         -1.63914       -1.97915        1.44992
H         -1.64227       -1.98029       -1.44598
H         -1.63635        1.98124       -1.44933
H         -1.63505        1.98302        1.44717
