26
20346208.log	Energy: -394058.4632077
C          3.62650       -0.81939       -0.38568
C          3.22516        0.43030       -0.09478
C          1.88364        0.65966        0.53240
C          0.88114       -0.42931        0.27901
C         -0.45120       -0.12904        0.15255
C         -1.50438       -1.11470        0.08374
C         -2.81779       -0.73934       -0.03229
C         -3.19962        0.66967       -0.12070
C         -2.23962        1.62170       -0.10901
C         -0.83419        1.28061       -0.00443
C          0.14728        2.22172       -0.16252
O          1.45423        1.99914        0.00832
N         -3.85759       -1.68609       -0.00025
C          1.43763       -1.76388        0.13566
C          2.74127       -1.95854       -0.16788
H          4.61150       -1.02662       -0.80168
H          3.82470        1.31699       -0.27428
H          1.97651        0.87297        1.62655
H         -1.21653       -2.15944        0.15568
H         -4.25527        0.91932       -0.17850
H         -2.49655        2.68067       -0.17355
H          0.00350        3.25932       -0.46767
H         -4.74775       -1.42525       -0.39216
H         -3.61685       -2.65244       -0.15812
H          0.74778       -2.60151        0.24922
H          3.16335       -2.95127       -0.28669
