29
203934.log	Energy: -428775.3040945
C         -4.31944        1.17493       -0.47796
N         -3.16989        0.43669        0.12073
C         -3.51579       -0.07745        1.47810
C         -2.73177       -0.67933       -0.77047
C         -1.27826       -1.05708       -0.47411
O         -0.91169       -2.21893       -0.49540
N         -0.40288        0.02085       -0.26019
C          0.98999       -0.07727        0.01758
C          1.62762       -1.25269        0.22771
C          3.02455       -1.46629        0.50750
C          4.06935       -0.64875        0.25369
C          4.02458        0.65911       -0.35846
C          2.97361        1.49384       -0.43946
C          1.61643        1.29883        0.07535
O          0.93913        2.23466        0.46514
H         -4.59223        2.00813        0.19227
H         -5.22017        0.56957       -0.65620
H         -4.00333        1.62513       -1.43319
H         -4.38334       -0.75236        1.51390
H         -2.64749       -0.61007        1.90094
H         -3.71701        0.78207        2.13952
H         -3.34868       -1.60398       -0.68526
H         -2.79486       -0.36687       -1.83839
H         -0.81813        0.96774       -0.13817
H          1.02844       -2.18539        0.20491
H          3.23563       -2.45127        0.95253
H          5.07938       -0.99735        0.50197
H          4.98729        0.99526       -0.77372
H          3.09918        2.48373       -0.89975
