28
20454050.log	Energy: -430979.2105084
C         -1.19735       -1.97595       -0.60222
C         -2.49434       -2.22376        0.11446
C         -3.21937       -1.20528        0.60769
C         -2.76284        0.16422        0.38821
C         -1.49321        0.41707       -0.01523
C         -0.53046       -0.69304       -0.14161
C          0.78978       -0.65030        0.14325
C          1.67669       -1.79277       -0.14958
C          2.99885       -1.63649       -0.34838
C          3.61368       -0.31117       -0.25287
C          2.91330        0.70827        0.26414
C          1.52713        0.48556        0.82286
O          0.83991        1.74451        0.90440
C          0.30541        2.25435       -0.31868
C         -1.14478        1.80393       -0.42855
O         -1.98556        2.56855       -0.85580
H         -0.51934       -2.84947       -0.47489
H         -1.39342       -1.91458       -1.69891
H         -2.80966       -3.26217        0.18723
H         -4.15858       -1.34828        1.13685
H         -3.49310        0.96917        0.51388
H          1.19957       -2.77283       -0.23122
H          3.65132       -2.47255       -0.59123
H          4.63176       -0.20162       -0.62003
H          3.29161        1.72314        0.35488
H          1.60301        0.24904        1.92386
H          0.37099        3.35457       -0.18936
H          0.89620        1.95329       -1.20070
