22
20487573.log	Energy: -436613.1489955
C          3.30304       -0.85026       -0.92762
C          3.59753        0.53073       -0.94033
C          2.76105        1.43712       -0.32055
C          1.57742        0.98618        0.34092
C          1.24471       -0.38954        0.29574
C          2.15103       -1.29502       -0.30647
C          0.02534       -0.97673        0.86881
O         -0.03116       -1.87192        1.67401
C         -1.27382       -0.47670        0.26646
N         -1.86756        0.65457        0.41386
C         -3.14562        0.60185       -0.39594
O         -3.93900        1.47007       -0.50289
N         -3.18778       -0.76139       -1.02947
C         -2.13138       -1.39876       -0.66504
N          0.85314        1.90369        1.09074
H          3.98587       -1.55136       -1.40038
H          4.50244        0.87722       -1.44430
H          3.00488        2.49674       -0.31812
H          1.92016       -2.36305       -0.27862
H         -1.82461       -2.40760       -0.91475
H         -0.07638        1.68288        1.42566
H          1.00869        2.88869        0.93981
