30
20483354.log	Energy: -429338.2123259
C          1.83121       -0.11389        1.26719
C          3.35844       -0.27991        1.23826
N          3.76261       -1.08293        0.04289
C          3.33732       -0.43112       -1.23443
C          1.80956       -0.26914       -1.25791
C          1.33098        0.54539       -0.03696
C         -0.15080        0.65769       -0.02448
C         -1.14297       -0.25259       -0.00470
C         -1.19418       -1.69938        0.01278
C         -2.38831       -2.33005        0.02966
C         -3.65401       -1.59414        0.03088
C         -3.70583       -0.24530        0.01709
C         -2.46646        0.51561       -0.00006
N         -2.29275        1.81480       -0.01200
C         -0.83547        2.05555       -0.02911
O         -0.30631        3.12400       -0.04410
H          1.53291        0.49258        2.14160
H          1.35673       -1.10717        1.39502
H          3.84737        0.71797        1.27817
H          3.68967       -0.84038        2.14068
H          4.78329       -1.19428        0.04064
H          3.65502       -1.09584       -2.06810
H          3.82323        0.55491       -1.40243
H          1.33496       -1.27042       -1.25496
H          1.49645        0.22531       -2.19531
H          1.77115        1.57797       -0.10383
H         -0.24371       -2.23767        0.01266
H         -2.45606       -3.41850        0.04417
H         -4.56765       -2.19348        0.04306
H         -4.63882        0.32161        0.01600
