17
2049780.log	Energy: -558896.6994052
C         -2.40640        0.02558        1.32087
C         -2.89389        0.51725        0.15020
S         -1.80933        0.14169       -1.15787
C         -0.68809       -0.69115       -0.10568
C         -1.14568       -0.66717        1.17867
C          0.53438       -1.30574       -0.65619
C          1.80287       -0.74024       -0.06021
O          2.73763       -1.38971        0.31422
C          1.85169        0.80629       -0.04306
O          2.08595        1.54427       -0.96377
O          1.58190        1.26204        1.21246
H         -2.88883        0.12441        2.28511
H         -3.80406        1.06619       -0.02098
H         -0.63894       -1.10503        2.02910
H          0.51465       -2.41299       -0.48504
H          0.59569       -1.20049       -1.76853
H          1.59769        2.25913        1.27552
