22
20490778.log	Energy: -459847.8841010
C          4.09642       -1.83525        0.01997
O          2.69166       -1.44498        0.01049
C          2.42985       -0.10032       -0.00879
O          3.32452        0.72074       -0.02837
C          0.96101        0.14402       -0.00555
C          0.11270       -0.91051       -0.01112
C         -1.32841       -0.69483       -0.00690
N         -2.31833       -1.51672       -0.01159
C         -3.58987       -0.64380       -0.00052
O         -4.68552       -1.09295        0.00305
N         -3.16507        0.76178        0.00678
C         -1.85580        0.79037        0.00522
C         -0.89645        1.82617        0.00957
C          0.45922        1.55169        0.00362
N          1.36909        2.57703        0.00587
H          4.03705       -2.91453       -0.16377
H          4.51894       -1.60705        1.00346
H          4.64047       -1.31102       -0.77333
H          0.46417       -1.95470       -0.01782
H         -1.27354        2.85031        0.01848
H          1.05882        3.53653        0.01576
H          2.37690        2.41805       -0.00449
