30
2054625.log	Energy: -429321.1079771
C          2.84242        0.93017        0.59245
C          3.95421        0.11802       -0.09251
O          3.65130       -1.28707       -0.02254
C          2.41321       -1.61206       -0.68410
C          1.23192       -0.84609       -0.06438
N          1.53782        0.61033       -0.06598
C          0.54063        1.57250        0.05596
C         -0.81474        1.42481        0.00230
C         -1.61473        2.60225       -0.09133
N         -2.26852        3.55510       -0.16765
C         -1.58969        0.16930        0.04383
C         -2.23102       -0.30407       -1.11210
C         -2.97590       -1.48448       -1.06052
C         -3.08831       -2.19402        0.13939
C         -2.45792       -1.71792        1.29340
C         -1.71119       -0.53833        1.25118
H          3.05744        2.01684        0.50905
H          2.80862        0.67936        1.67755
H          4.09187        0.41249       -1.14791
H          4.91319        0.18585        0.45260
H          2.33139       -2.70098       -0.51251
H          2.51618       -1.40264       -1.76389
H          1.02453       -1.21560        0.96479
H          0.31844       -1.03730       -0.67470
H          0.94157        2.60485        0.10884
H         -2.15143        0.25601       -2.04280
H         -3.47585       -1.84916       -1.95687
H         -3.67274       -3.11123        0.17703
H         -2.55558       -2.26398        2.23046
H         -1.23647       -0.15652        2.15275
