30
2055317.log	Energy: -499377.3191151
C          4.31963       -1.59111       -0.09485
C          3.43580       -2.71546       -0.01997
C          2.08009       -2.54190        0.02177
C          1.51363       -1.21536        0.04988
C          0.12743       -0.99723        0.18101
C         -0.40593        0.29872        0.21532
C          0.48384        1.42797        0.03369
C          1.85385        1.20059       -0.07738
C          2.39693       -0.09880       -0.04852
C          3.81439       -0.32207       -0.12119
C         -0.03154        2.79261       -0.03482
O         -1.18482        3.18546        0.02208
O          0.96538        3.73550       -0.18737
N         -1.74905        0.54284        0.46287
C         -2.75797       -0.50596        0.67180
C         -3.56838       -0.76786       -0.62220
C         -4.76663       -1.53511       -0.33475
N         -5.72371       -2.14907       -0.11469
H          5.39170       -1.77511       -0.13356
H          3.87007       -3.71643       -0.01524
H          1.40214       -3.39222        0.05631
H         -0.52841       -1.85984        0.28072
H          2.52207        2.06578       -0.19106
H          4.47132        0.54518       -0.19949
H          0.59083        4.66023       -0.22283
H         -2.11782        1.50226        0.35707
H         -2.29033       -1.45590        1.02575
H         -3.43966       -0.16628        1.48997
H         -3.84950        0.19471       -1.11519
H         -2.92843       -1.30058       -1.36606
