26
20563349.log	Energy: -430295.5388039
C         -2.85553        1.44252        0.00207
C         -4.07649        0.57841        0.00461
C         -4.01737       -0.76497        0.00286
C         -2.73977       -1.45818       -0.00127
C         -1.56843       -0.76960       -0.00197
C         -1.54287        0.70428       -0.00081
C         -0.36986        1.37752       -0.00253
C          0.91075        0.68422       -0.00317
C          2.11307        1.33665       -0.00040
C          3.39001        0.63766        0.00776
C          3.42937       -0.70600        0.01037
C          2.18909       -1.52518        0.00061
O          2.23210       -2.74162       -0.00694
C          0.89489       -0.77998       -0.00175
C         -0.27914       -1.45871       -0.00243
O          2.08970        2.71726       -0.01091
H         -2.89446        2.12104       -0.88342
H         -2.89055        2.12175        0.88738
H         -5.02555        1.11431        0.00860
H         -4.91590       -1.38116        0.00555
H         -2.76504       -2.54852       -0.00248
H         -0.32120        2.46837       -0.00359
H          4.29878        1.24148        0.01133
H          4.35975       -1.27451        0.01730
H         -0.28552       -2.55565       -0.00300
H          2.99906        3.09598        0.02159
