17
20560349.log	Energy: -296996.3909640
C         -2.73981       -0.39126       -0.57618
C         -2.47031        0.82629        0.04931
N         -1.20069        0.74116        0.63019
C         -0.66204       -0.52604        0.34529
C         -1.61026       -1.23893       -0.39287
C          0.67619       -0.94570        0.82134
C          1.81082       -0.44990       -0.04290
O          2.82672       -1.06580       -0.24104
C          1.62624        0.94732       -0.68025
O          1.46151        1.92573        0.00590
H         -3.63694       -0.65233       -1.10110
H         -3.07878        1.70866        0.12041
H         -0.70865        1.49020        1.08795
H         -1.51561       -2.24229       -0.75514
H          0.86077       -0.60547        1.86900
H          0.72309       -2.06068        0.88542
H          1.67020        0.96366       -1.77927
