30
20587056.log	Energy: -406129.1957010
C          5.02173       -0.26730        0.08038
C          3.53216       -0.29829       -0.00775
C          2.83928       -1.46469       -0.11032
N          1.42198       -1.52110       -0.05799
C          0.68543       -0.28559       -0.04354
C         -0.68496       -0.28324        0.03862
C         -1.44595        0.97459        0.00941
C         -2.80544        0.96667       -0.01958
C         -3.53278       -0.28814        0.00364
C         -2.84099       -1.45623        0.10906
N         -1.42640       -1.51428        0.05306
C         -5.02435       -0.27380       -0.06333
C         -0.67011        2.21631        0.00777
C          0.67556        2.21497       -0.01087
C          1.44868        0.97092       -0.01383
C          2.80761        0.95956        0.01611
H          5.34589        0.05189        1.08205
H          5.45134        0.43942       -0.64334
H          5.48013       -1.24514       -0.11249
H          3.32479       -2.44093       -0.16943
H          1.00875       -2.24124       -0.65794
H         -3.38232        1.88797       -0.05137
H         -3.33056       -2.43027        0.17393
H         -1.00659       -2.24938        0.62837
H         -5.41024       -1.03448       -0.75534
H         -5.46749       -0.46770        0.92395
H         -5.41437        0.69337       -0.40743
H         -1.23779        3.14721        0.01525
H          1.24579        3.14415       -0.01778
H          3.38829        1.87817        0.05147
