22
20616.log	Energy: -322614.9246677
C         -0.88705        2.53850       -0.00196
C         -2.01881        1.66034       -0.00068
C         -1.79509        0.30925        0.00336
C         -0.42749       -0.15645        0.00370
C         -0.39880       -1.59599        0.00007
C          0.82623       -2.21383       -0.00230
C          2.00273       -1.41256        0.00718
C          1.96155       -0.01615        0.00521
C          0.68802        0.67709        0.00553
C          0.41506        2.08021       -0.00070
N          3.15417        0.72719       -0.07203
C         -1.81531       -2.01338       -0.00104
C         -2.62315       -0.91513        0.00133
H         -1.08271        3.61036       -0.00817
H         -3.02027        2.08318       -0.00401
H          0.92589       -3.29770       -0.00725
H          2.96121       -1.92536        0.00193
H          1.24254        2.78577       -0.01352
H          4.01022        0.25329        0.17390
H          3.12636        1.68353        0.24546
H         -2.11336       -3.04599       -0.00415
H         -3.69645       -0.88875        0.00183
