24
20633670.log	Energy: -473550.9970061
C          4.17868       -0.62430        0.82449
C          3.07809       -1.16947       -0.02524
O          3.14487       -2.18710       -0.66404
C          1.84527       -0.30924       -0.04231
N          0.61920       -0.79542        0.01127
N         -0.30412        0.21322       -0.03648
C          0.31903        1.52986       -0.14126
O         -0.25238        2.57290       -0.20375
C          1.86473        1.18163       -0.13888
O          2.75297        1.97078       -0.19727
C         -1.71661       -0.10828        0.01458
C         -2.64491        0.93884        0.13613
C         -4.00653        0.63063        0.18326
C         -4.44035       -0.69650        0.11334
C         -3.50469       -1.72957       -0.00795
C         -2.13860       -1.44709       -0.05965
H          5.06817       -1.27338        0.79118
H          3.88014       -0.53240        1.87864
H          4.49406        0.38019        0.49287
H         -2.32232        1.98157        0.18790
H         -4.73386        1.43822        0.27588
H         -5.50408       -0.92548        0.15195
H         -3.84080       -2.76556       -0.06428
H         -1.41526       -2.25958       -0.15625
