30
206723.log	Energy: -413856.0315245
C          3.12474       -3.03262       -0.66065
C          2.01746       -2.35225       -0.37743
C          1.87597       -1.46831        0.83316
N          1.41320       -0.08402        0.52072
C          2.38441        0.70864       -0.29761
C          2.69062        2.00969        0.39749
C          3.22790        3.05154       -0.23205
C          0.04388        0.09455        0.20575
N         -0.82064       -0.97325        0.37671
N         -2.10093       -0.83830        0.23842
C         -2.66431        0.37151       -0.09943
C         -1.84322        1.51332       -0.31125
C         -0.47766        1.37328       -0.15710
N         -4.09030        0.49450       -0.10698
N         -4.88563       -0.69052       -0.09640
H          4.02508       -3.00383       -0.06425
H          3.21068       -3.68756       -1.51700
H          1.12052       -2.41241       -1.00021
H          1.14674       -1.93787        1.54379
H          2.83214       -1.36948        1.39690
H          3.33417        0.13169       -0.41799
H          2.01084        0.87903       -1.33292
H          2.45283        2.03075        1.46485
H          3.46842        3.98059        0.26633
H          3.47607        3.06585       -1.28320
H         -2.28593        2.47364       -0.57173
H          0.18828        2.22653       -0.28889
H         -4.43494        1.10652       -0.86570
H         -4.42178       -1.49063       -0.55000
H         -5.01171       -0.96783        0.88746
