30
20744.log	Energy: -499281.1135407
C         -3.25118        0.72594       -0.75343
C         -4.63372        0.87705       -0.77886
C         -5.44352        0.02981        0.01069
C         -4.84424       -0.95968        0.82437
C         -3.46157       -1.09814        0.82992
C         -2.64373       -0.25563        0.05110
C         -1.19007       -0.43477        0.08561
C         -0.29979        0.55029       -0.11973
C          1.15355        0.35000       -0.08418
C          1.74249       -0.80875       -0.62753
C          3.12307       -0.98215       -0.59005
C          3.92544        0.01094       -0.00521
C          3.35456        1.17465        0.53818
C          1.97404        1.34081        0.49253
N          5.38789       -0.16921        0.03768
O          5.84952       -1.18784       -0.45376
O          6.05459        0.71003        0.56170
N         -6.84746        0.11584       -0.07433
H         -2.63173        1.37524       -1.37416
H         -5.08638        1.63234       -1.41550
H         -5.46070       -1.61932        1.42905
H         -3.00457       -1.86742        1.45461
H         -0.85512       -1.45303        0.31392
H         -0.62018        1.57818       -0.31066
H          1.11459       -1.56973       -1.09196
H          3.59086       -1.87849       -1.01247
H          4.00102        1.93567        0.98942
H          1.52375        2.24052        0.91310
H         -7.23733        0.97592       -0.42854
H         -7.38208       -0.27598        0.68584
