29
20768560.log	Energy: -488549.4212743
C         -0.08491       -2.21706       -0.53458
H          0.58686       -3.04740       -0.63961
H         -1.11871       -2.46479       -0.71276
N          0.31381       -0.97068       -0.24799
C         -0.56513        0.04654       -0.05791
O         -0.16113        1.37306        0.07141
C          1.17311        1.74168        0.14250
O          1.37737        2.92563        0.24807
C          2.15755        0.64492        0.07277
C          3.52513        0.93972        0.20296
C          4.46863       -0.08269        0.14389
C          4.05057       -1.40742       -0.04653
C          2.69754       -1.71375       -0.17744
C          1.73987       -0.68451       -0.11896
C         -2.02615       -0.03123       -0.00317
C         -2.78868        0.90641       -0.72201
C         -4.18261        0.86111       -0.66052
C         -4.82160       -0.11204        0.11460
C         -4.06271       -1.03684        0.83948
C         -2.66796       -0.99881        0.78956
H          3.83021        1.98190        0.35031
H          5.53075        0.14461        0.24467
H          4.79164       -2.20854       -0.09256
H          2.38180       -2.75131       -0.32535
H         -2.28298        1.67014       -1.31427
H         -4.77280        1.58769       -1.21723
H         -5.90838       -0.14649        0.15843
H         -4.56071       -1.78761        1.45110
H         -2.08031       -1.70918        1.36948
