19
20805828.log	Energy: -285101.2609557
C         -4.37600       -0.41339       -0.30328
N         -3.21053       -0.48132       -0.37404
C         -1.81806       -0.57148       -0.46007
C         -0.97052        0.27698        0.18240
C          0.50015        0.08684        0.06886
C          1.08617       -1.11403        0.49701
C          2.46739       -1.29057        0.38471
C          3.26486       -0.27386       -0.15214
C          2.67950        0.92290       -0.57704
C          1.29845        1.10705       -0.46928
N         -1.37655        1.42547        0.89793
H         -1.44621       -1.37578       -1.10215
H          0.46428       -1.90539        0.91463
H          2.92362       -2.22296        0.71490
H          4.34117       -0.41533       -0.23924
H          3.30002        1.71444       -0.99587
H          0.83704        2.03647       -0.80598
H         -2.34764        1.45419        1.18173
H         -0.75434        1.72264        1.63771
