26
21082.log	Energy: -430312.4385557
C         -3.67410        0.72855        0.00079
C         -3.67737       -0.70854        0.00133
C         -2.50354       -1.40272        0.00108
C         -1.23857       -0.71279       -0.00104
C         -1.23782        0.71531       -0.00088
C         -2.49693        1.41678       -0.00039
C          0.00082        1.39270       -0.00039
C          1.23818        0.71338       -0.00017
C          2.50385        1.40240       -0.00019
C          3.67697        0.70724        0.00135
C          3.67460       -0.72986        0.00110
C          2.49684       -1.41709        0.00048
C          1.23833       -0.71472       -0.00023
C         -0.00101       -1.39151       -0.00093
O          0.08546       -2.76711       -0.00265
O         -0.08565        2.76810       -0.00157
H         -4.63162        1.24693        0.00091
H         -4.63784       -1.22216        0.00325
H         -2.48942       -2.49315        0.00259
H         -2.46265        2.50890       -0.00142
H          2.49103        2.49284       -0.00070
H          4.63784        1.22025        0.00193
H          4.63173       -1.24844        0.00087
H          2.46155       -2.50921       -0.00049
H         -0.81629       -3.18566        0.00741
H          0.81581        3.18705        0.00808
