31
21087837.log	Energy: -455908.2087957
C         -1.24896        2.70114        0.05377
C         -0.07164        3.61901       -0.02077
C          1.19502        3.17786       -0.04274
C          1.50627        1.74852       -0.01201
C          0.48063        0.80605        0.00568
C         -0.92653        1.23421        0.02068
C         -1.90268        0.29771        0.01144
C         -3.37144        0.40624        0.00837
C         -3.89229       -0.85161       -0.01906
C         -2.79880       -1.83717       -0.02929
C         -1.61132       -1.16294       -0.00801
C         -0.22968       -1.61016       -0.00101
C          0.11807       -2.94769       -0.00181
C          1.48293       -3.34064        0.00511
C          2.48023       -2.39646        0.01017
C          2.15795       -1.00367        0.00882
C          0.79993       -0.59847        0.00599
C          3.18694       -0.00834        0.00710
C          2.87107        1.32454       -0.00703
H         -1.95348        2.93956       -0.77885
H         -1.82150        2.92140        0.98777
H         -0.31303        4.68145       -0.04916
H          2.03931        3.86575       -0.09009
H         -3.89483        1.34137        0.02431
H         -4.92837       -1.13498       -0.03111
H         -2.96258       -2.89658       -0.04883
H         -0.65101       -3.71932       -0.00829
H          1.72115       -4.40373        0.00548
H          3.52848       -2.69125        0.01506
H          4.22718       -0.33434        0.01462
H          3.65436        2.08181       -0.01324
