21
21111619.log	Energy: -379057.4235641
C         -2.68216        1.13241        0.05565
C         -3.59572       -0.05688        0.01571
C         -3.14987       -1.32451       -0.01000
C         -1.73538       -1.62464       -0.01906
C         -0.81498       -0.62296       -0.01805
N         -1.22871        0.76481        0.00778
C         -0.28331        1.77692       -0.01356
C          1.05828        1.48847       -0.04752
C          1.43090        0.09989       -0.05905
N          0.57637       -0.89676       -0.04515
C          2.89549       -0.25417       -0.12646
O          3.59971       -0.37938       -1.09513
O          3.39704       -0.38055        1.14227
H         -2.90732        1.80536       -0.80749
H         -2.86774        1.71079        0.99464
H         -4.65379        0.19193        0.01465
H         -3.83470       -2.17407       -0.03181
H         -1.41392       -2.66490       -0.03349
H         -0.64727        2.81242       -0.00096
H          1.81415        2.26555       -0.06355
H          4.36349       -0.63113        1.14661
