28
21115849.log	Energy: -407776.5422852
C         -4.18210        0.48306       -0.39647
C         -3.07434        1.20309       -0.66339
C         -1.73617        0.77015       -0.22357
C         -0.73409        1.68520       -0.24147
C          0.64134        1.53281        0.17102
C          1.37146        0.40331        0.24716
C          2.85526        0.49374        0.59639
C          3.69098       -0.46736       -0.21089
C          3.15347       -1.57894       -0.73525
C          1.74390       -1.89030       -0.52556
C          0.88967       -0.96169       -0.02359
C         -0.47482       -1.33570        0.33499
C         -1.61755       -0.61328        0.26006
C         -2.87473       -1.27918        0.65281
C         -4.08207       -0.77069        0.33661
O          3.34465        1.83233        0.41745
H         -5.17296        0.80658       -0.71009
H         -3.12899        2.14738       -1.20569
H         -0.96606        2.70191       -0.59156
H          1.14361        2.48733        0.40777
H          3.00736        0.33660        1.69504
H          4.73860       -0.19890       -0.31043
H          3.74013       -2.29457       -1.31010
H          1.41826       -2.89813       -0.77045
H         -0.54110       -2.36961        0.70679
H         -2.78059       -2.21766        1.19942
H         -5.00999       -1.26975        0.61134
H          3.37337        2.06470       -0.53478
