27
21127596.log	Energy: -407515.1257442
C          4.20237       -0.84611        0.11620
C          3.01382       -1.49052       -0.04686
C          1.93954       -0.48315       -0.04001
C          0.59398       -0.56997       -0.15721
C         -0.11724       -1.80976       -0.48959
C         -1.45885       -1.90499       -0.42700
C         -2.22881       -0.78765        0.12492
C         -3.37429       -1.09949        1.09303
C         -3.73113       -0.34239        0.07975
C         -3.85310        1.02912       -0.35740
C         -2.60852        1.57342       -0.25306
C         -1.55906        0.56216        0.03324
C         -0.21168        0.67644       -0.04567
C          0.49187        1.96231       -0.02576
C          1.83442        2.04134        0.09083
C          2.62961        0.83192        0.12315
C          3.97153        0.60636        0.21529
H          5.18365       -1.28045        0.16786
H          2.83601       -2.54297       -0.15039
H          0.50059       -2.64435       -0.82117
H         -2.00376       -2.80425       -0.70582
H         -3.57968       -1.70796        1.92144
H         -4.78052        1.49824       -0.63424
H         -2.35628        2.61312       -0.39452
H         -0.12639        2.85791       -0.06992
H          2.35841        2.99420        0.15077
H          4.76115        1.32224        0.33288
