29
21158682.log	Energy: -416165.4050657
C         -2.62436       -2.37414       -0.01604
C         -2.00608       -1.01814       -0.01436
C         -2.75360        0.14629        0.00614
N         -2.19551        1.46283       -0.01571
C         -0.89020        1.62842       -0.01374
C          0.02188        0.50145       -0.00559
C          1.37522        0.33532        0.00160
C          2.51899        1.26981        0.01545
C          3.85474        0.58745        0.01876
C          4.00635       -0.75195        0.01274
C          2.87085       -1.66163        0.00036
C          1.62053       -1.14714       -0.00517
N          0.36680       -1.83476       -0.01560
C         -0.57418       -0.88609       -0.01325
C         -0.34963        3.02064       -0.03052
N         -4.15137        0.16263        0.11743
H         -1.85274       -3.16338       -0.01848
H         -3.24673       -2.53976       -0.90402
H         -3.23817       -2.53752        0.88043
H          2.45729        1.95724       -0.86423
H          2.44505        1.94140        0.90698
H          4.71277        1.25899        0.02756
H          4.99737       -1.20876        0.01679
H          3.05332       -2.73693       -0.00340
H          0.22389        3.23115        0.88325
H          0.30591        3.18485       -0.89610
H         -1.15570        3.77302       -0.08447
H         -4.65158       -0.64274       -0.22573
H         -4.61311        1.04578       -0.05962
