30
21402.log	Energy: -499372.4878683
C         -4.00516       -0.75267        0.02335
C         -4.01778        0.68105        0.00477
C         -2.84677        1.38369       -0.01511
C         -1.58062        0.69976       -0.01448
C         -1.57046       -0.71849        0.01152
C         -2.81972       -1.43115        0.02844
C         -0.31940       -1.39548        0.00970
C          0.91515       -0.70348        0.00558
C          2.19556       -1.38297       -0.01588
C          3.37499       -0.68728       -0.06084
C          3.37919        0.73038       -0.04936
C          2.19133        1.43776        0.02430
C          0.90543        0.73537        0.00252
C         -0.34116        1.38459       -0.03535
O         -0.33281        2.76745       -0.12626
N          2.25463        2.82472        0.21186
N          2.19198       -2.84669        0.00674
O         -0.43669       -2.74639        0.00908
H         -4.95705       -1.27977        0.03473
H         -4.98066        1.18986        0.00675
H         -2.84118        2.47428       -0.03028
H         -2.77547       -2.52347        0.04558
H          4.33610       -1.19903       -0.09487
H          4.33645        1.24273       -0.06780
H         -1.24997        3.14246       -0.05385
H          3.11208        3.28716       -0.04734
H          1.42758        3.38741        0.05047
H          2.65699       -3.18953        0.84886
H          2.69971       -3.21897       -0.79675
H          0.50174       -3.21434       -0.00340
