27
21407026.log	Energy: -633306.2409577
C         -2.34821        2.60400       -0.02313
C         -3.54603        1.86869       -0.00746
C         -3.50289        0.47941        0.01013
C         -2.26073       -0.17538        0.00934
C         -1.04717        0.53514       -0.00230
C         -1.12420        1.94962       -0.01873
C          0.22646       -0.15371       -0.00212
C          1.52189        0.32173        0.00293
C          2.08982        1.64802        0.02136
C          3.43569        1.81339        0.02382
C          4.34356        0.67648        0.00666
C          3.88053       -0.59701       -0.01040
C          2.45462       -0.83650       -0.01129
C          1.73556       -1.99981       -0.02293
C          0.31078       -1.64600       -0.01253
C         -0.73647       -2.48610       -0.00560
S         -2.36164       -1.91816        0.01870
H         -2.38559        3.69279       -0.03850
H         -4.50239        2.38913       -0.00924
H         -4.43217       -0.09282        0.02211
H         -0.19831        2.53410       -0.02936
H          1.40266        2.49852        0.03375
H          3.88413        2.80552        0.03857
H          5.41080        0.89371        0.00840
H          4.54294       -1.45978       -0.02340
H          2.09843       -3.00790       -0.03560
H         -0.63346       -3.57446       -0.01239
