28
2147281.log	Energy: -413168.3969897
C         -0.14480       -2.21114       -0.51469
C          0.87856       -1.17466       -0.24177
C          2.20562       -1.43361       -0.00457
C          3.15021       -0.36629        0.24457
N          2.80476        0.91984        0.25654
C          1.48314        1.23692        0.01982
N          0.82979        2.43511       -0.04403
N         -0.47000        2.21375       -0.29695
C         -0.73498        0.88304       -0.41790
N          0.49187        0.17773       -0.22364
N         -1.95951        0.21890       -0.71579
C         -2.85095        0.11869        0.49230
C         -4.07642       -0.66927        0.12088
C         -5.26449       -0.46237        0.68250
C          4.58001       -0.70350        0.50019
H         -0.66955       -2.02036       -1.47065
H         -0.93963       -2.21587        0.25146
H          0.27735       -3.22400       -0.56303
H          2.57449       -2.45740       -0.00548
H         -2.45032        0.71515       -1.47950
H         -2.29863       -0.41373        1.30231
H         -3.11407        1.12108        0.90394
H         -3.91713       -1.44373       -0.63348
H         -6.14288       -1.04359        0.43660
H         -5.45974        0.29587        1.42803
H          5.02589       -1.23084       -0.35600
H          5.19277        0.19907        0.67811
H          4.68765       -1.34574        1.38671
