26
21537434.log	Energy: -528809.6890382
C          3.92436       -2.46840       -0.10462
C          2.99142       -1.30984       -0.05876
C          3.45570        0.01291       -0.04934
C          2.49554        1.05205        0.01308
N          1.13962        0.77988        0.03173
C          0.78495       -0.53665        0.01774
N          1.64972       -1.59763       -0.02476
C         -0.64387       -0.87121        0.04489
C         -1.31888       -2.07643        0.13913
C         -2.71390       -1.77275        0.11863
C         -2.80140       -0.39802        0.01206
O         -1.53656        0.20277       -0.03638
N         -3.92760        0.52555       -0.05900
O         -5.03669        0.01949       -0.00122
O         -3.68638        1.71095       -0.16982
N          2.88280        2.39100        0.15580
N          1.95555        3.46165        0.02012
H          4.63939       -2.38416       -0.93621
H          3.39107       -3.42783       -0.22780
H          4.50661       -2.54536        0.82743
H          4.51864        0.22862       -0.07133
H         -0.87090       -3.05584        0.21068
H         -3.53140       -2.47478        0.17510
H          3.80226        2.66215       -0.21691
H          1.22595        3.25461       -0.68059
H          1.45119        3.56370        0.91479
