18
21530174.log	Energy: -354528.6080696
C         -2.75783        1.03233        0.00284
C         -3.01414       -0.44459        0.00043
C         -2.03140       -1.35533       -0.00485
C         -0.61531       -0.96107       -0.00109
N          0.32019       -1.87693        0.00457
C          1.66758       -1.50179        0.00192
N          2.09951       -0.22108       -0.00009
C          1.08789        0.91991       -0.00210
O          1.50196        2.04436       -0.00049
C         -0.32495        0.49107       -0.00245
C         -1.31591        1.41065        0.00088
O          3.29825        0.09988       -0.00047
H         -3.26242        1.49657       -0.88146
H         -3.26154        1.49597        0.88775
H         -4.06605       -0.73419        0.00079
H         -2.22631       -2.43277       -0.00909
H          2.39526       -2.32666        0.00167
H         -1.09405        2.48605        0.00332
