29
21651082.log	Energy: -690672.8777359
C         -5.31834       -0.54735       -0.89480
C         -4.10442       -0.90791       -0.04707
C         -2.95416        0.08683       -0.25474
C         -1.76949       -0.22950        0.61630
O         -1.76165       -1.06906        1.48782
C         -0.51805        0.57487        0.32874
C         -0.53124        1.91454        0.21113
C          0.69703        2.71753       -0.06237
O          0.64263        3.92251       -0.17106
C          2.02080        1.98215       -0.21463
C          1.90837        0.52820       -0.03441
C          0.74946       -0.14175        0.20857
N          0.83503       -1.56384        0.28689
C          2.21652       -2.07256        0.20069
S          3.28039       -0.55480       -0.10485
O          2.34829       -2.91595       -0.89446
H         -5.72342        0.43708       -0.63360
H         -6.12605       -1.27666       -0.75287
H         -5.08136       -0.53258       -1.96507
H         -4.37993       -0.93850        1.02779
H         -3.75800       -1.93346       -0.28939
H         -2.64684        0.09765       -1.32316
H         -3.30548        1.12099       -0.04793
H         -1.43999        2.51280        0.30902
H          2.45200        2.23307       -1.21594
H          2.75613        2.42044        0.50647
H          0.21537       -2.00868        0.97837
H          2.58591       -2.67131        1.06315
H          1.90698       -2.56748       -1.71023
