24
21709739.log	Energy: -450367.5415986
C         -4.02952       -1.00720        0.07495
C         -4.21237        0.38834        0.02372
C         -3.12462        1.25456       -0.02605
C         -1.83920        0.69166       -0.02189
C         -1.62852       -0.70837        0.02480
C         -2.75440       -1.55967        0.07576
N         -0.32760       -1.25680        0.01065
C          0.66873       -0.41810       -0.02838
C          0.51235        1.04763       -0.04349
C          1.53524        1.92854       -0.02800
C          2.89163        1.43086        0.02602
C          3.16865        0.09888        0.04026
C          2.08459       -0.94849       -0.06867
O          2.35285       -2.11661       -0.21657
N          4.46110       -0.42050        0.25080
O         -0.78626        1.58774       -0.06889
H         -4.90284       -1.65809        0.11449
H         -5.22545        0.79610        0.02279
H         -3.24610        2.33560       -0.06614
H         -2.59971       -2.64130        0.11327
H          1.37051        3.00498       -0.04174
H          3.68645        2.17490        0.07704
H          4.58538       -1.39465       -0.01284
H          5.22913        0.16278       -0.04756
