31
21762742.log	Energy: -501946.5710650
C          1.73598        1.02791        0.71250
C          1.18559        0.47217       -0.61130
H          1.12672        1.27157       -1.38249
C          1.89553       -0.77794       -1.14338
C          3.40689       -0.71822       -0.88166
H          4.06921       -1.05478       -1.69057
O          3.72516       -1.49251        0.29754
C          3.55690       -0.61938        1.45097
C          3.24188        0.76943        0.83432
H          3.80516        1.61037        1.27317
O          3.78566        0.61943       -0.50923
O         -0.18049       -0.02286       -0.36574
C         -1.19822        0.90271       -0.27379
O         -0.97168        2.09047       -0.34707
C         -2.50264        0.22924       -0.07537
C         -2.61323       -1.16918       -0.07092
C         -3.86205       -1.76352        0.12436
C         -4.99527       -0.96467        0.31242
C         -4.88520        0.43043        0.30470
C         -3.64010        1.03182        0.11184
H          1.51860        2.11532        0.76219
H          1.18398        0.58346        1.56427
H          1.47478       -1.68353       -0.64970
H          1.68409       -0.90566       -2.22027
H          4.51684       -0.65628        1.98739
H          2.74812       -1.04879        2.05811
H         -1.72053       -1.78231       -0.21952
H         -3.95260       -2.84889        0.12972
H         -5.96925       -1.43104        0.46388
H         -5.77043        1.04862        0.44842
H         -3.54025        2.12087        0.10328
