29
21783804.log	Energy: -657238.1798927
C         -0.13768        3.23457        0.21152
C         -0.10345        2.42520        1.35149
C         -0.49147        1.08519        1.27357
C         -0.92071        0.55438        0.04705
C         -0.95933        1.36784       -1.09664
C         -0.56554        2.70530       -1.01027
C         -1.33157       -0.85452       -0.04389
C         -2.58927       -1.30862       -0.01619
C         -3.77244       -0.42471        0.12087
O         -4.90179       -0.86596        0.10736
S         -0.05520       -2.06067       -0.22201
C          1.47368       -1.18683       -0.13700
C          2.23169       -1.29544        1.03063
C          3.49135       -0.68839        1.08004
C          3.97210        0.01966       -0.02686
C          3.20024        0.12107       -1.18962
C          1.94162       -0.48608       -1.25030
H          0.16863        4.27786        0.27579
H          0.22901        2.83859        2.30311
H         -0.46086        0.45356        2.16114
H         -1.29500        0.95546       -2.04769
H         -0.59435        3.33710       -1.89717
H         -2.83358       -2.37419       -0.09176
H         -3.57300        0.65346        0.23619
H          1.85527       -1.84703        1.89316
H          4.09680       -0.76673        1.98178
H          4.95228        0.49399        0.01671
H          3.57867        0.67290       -2.04873
H          1.33843       -0.40824       -2.15552
