30
21809444.log	Energy: -406129.3398776
C          1.53027        2.27332        1.26811
C          0.94892        1.61058       -0.00007
C         -0.54498        1.83188       -0.00148
C         -1.45617        0.83707        0.00051
C         -2.90413        1.08959       -0.00210
C         -3.78152        0.06471        0.00012
C         -3.27761       -1.31042        0.00072
N         -2.00537       -1.61337        0.00100
C         -1.05655       -0.57085        0.00163
C          0.29822       -0.88638       -0.00060
C          1.34243        0.13153       -0.00039
C          2.65457       -0.25045        0.00122
C          3.02671       -1.63533       -0.00027
C          2.05220       -2.59402       -0.00103
N          0.70723       -2.23369       -0.00137
C          1.53273        2.27522       -1.26635
H          2.62060        2.20605        1.30559
H          1.13290        1.79491        2.17111
H          1.26466        3.33433        1.31805
H         -0.84486        2.87533       -0.00278
H         -3.22663        2.12948       -0.00383
H         -4.85757        0.21178        0.00062
H         -4.00437       -2.12875        0.00022
H          3.45715        0.48918        0.00334
H          4.07949       -1.90126       -0.00070
H          2.26875       -3.66653       -0.00091
H         -0.02043       -2.95653       -0.00081
H          1.27945        3.33964       -1.30704
H          2.62191        2.19505       -1.30966
H          1.12543        1.80795       -2.17074
