31
21823.log	Energy: -442508.5505785
C         -2.59852       -1.98374       -0.03587
C         -3.20632       -0.82831       -0.85512
C         -2.83166        0.56899       -0.30042
N         -1.57728        0.43177        0.47877
C         -0.59058       -0.48729       -0.19770
H         -0.55896       -0.33679       -1.30854
C         -1.05906       -1.91707        0.07983
C          0.76492       -0.00583        0.40545
C          0.39092        0.87616        1.61265
C         -0.81290        1.62615        0.95295
C         -0.28655        2.51565       -0.16959
C          0.78590        2.16665       -0.90509
C          1.48460        0.92484       -0.59964
C          2.67264        0.39064       -0.91619
C          2.85268       -0.87654       -0.15468
O          3.72317       -1.69377       -0.09845
O          1.69937       -1.07017        0.66324
H         -3.03112       -1.95915        0.98482
H         -2.89757       -2.94968       -0.48059
H         -2.87683       -0.91071       -1.90794
H         -4.30729       -0.92854       -0.87088
H         -2.76988        1.30535       -1.12758
H         -3.61266        0.92914        0.40484
H         -0.57437       -2.61561       -0.62529
H         -0.74061       -2.23901        1.09065
H          1.19765        1.53879        1.95017
H          0.07668        0.27295        2.48282
H         -1.42497        2.19983        1.67919
H         -0.83583        3.43689       -0.34547
H          1.17677        2.77900       -1.71632
H          3.44329        0.74489       -1.57908
