17
21847967.log	Energy: -286660.7669810
C         -2.56595        0.69366       -0.17518
C         -2.56614       -0.69434       -0.17373
C         -1.37133       -1.43655       -0.01742
C         -0.19062       -0.75347        0.11637
C         -0.19076        0.75303        0.11675
C         -1.37175        1.43656       -0.01641
C          1.23063        1.07648        0.25623
C          2.19935        0.73592       -0.71631
C          2.20163       -0.73578       -0.71525
C          1.23103       -1.07543        0.25616
O          1.58189        0.00013        1.21362
H         -3.50503        1.23567       -0.29043
H         -3.50563       -1.23643       -0.28665
H         -1.40286       -2.52501        0.01483
H         -1.40276        2.52490        0.01812
H          2.75914        1.36274       -1.37877
H          2.76538       -1.36325       -1.37333
