31
21860197.log	Energy: -489298.6039019
C         -3.36003       -2.49927        0.06908
C         -2.96852       -1.09064        0.00119
C         -3.57408        0.02656        0.51525
C         -2.72704        1.18514        0.25756
N         -1.65941        0.81062       -0.48083
C         -1.73141       -0.66015       -0.74142
C         -0.28679       -1.15083       -0.28680
C          0.53800        0.01780       -0.24433
C         -0.14816        1.23980       -0.39845
O          0.03367        2.42265       -0.43595
C          1.98380       -0.03272       -0.04756
C          2.77437        1.11932       -0.22977
C          4.15604        1.06326       -0.04327
C          4.77579       -0.13373        0.32656
C          3.99605       -1.28048        0.50827
C          2.61453       -1.23669        0.32477
O         -0.11551       -2.32680       -0.08604
C         -2.94852        2.55673        0.73250
H         -3.76837       -2.86756       -0.88789
H         -4.11153       -2.70969        0.84414
H         -2.47264       -3.13967        0.28102
H         -4.49704        0.07835        1.06617
H         -1.81068       -0.88214       -1.83560
H          2.31250        2.06401       -0.51724
H          4.75460        1.96067       -0.18962
H          5.85079       -0.17317        0.47109
H          4.47048       -2.21756        0.79564
H          2.02212       -2.14190        0.46965
H         -3.22774        2.58893        1.79952
H         -2.05189        3.20237        0.60827
H         -3.76438        3.05171        0.17505
