25
21887742.log	Energy: -414661.1418672
C          2.77091        1.51122        0.00310
C          4.10659        0.83090       -0.00757
C          4.26547       -0.50793       -0.00741
C          3.13393       -1.42586       -0.00099
C          1.88351       -0.91648        0.00394
C          1.63258        0.57169        0.00390
C          0.28560        0.72409        0.00416
C         -0.27584       -0.69835        0.00487
N          0.63408       -1.65510        0.00577
N         -1.67209       -0.52166        0.00282
C         -2.71225       -1.45083       -0.00072
C         -3.99722       -0.98821       -0.00525
C         -4.27553        0.42660       -0.00507
C         -3.28100        1.35455       -0.00173
C         -1.90054        0.94148        0.00152
N         -0.77510        1.65651        0.00228
H          2.68917        2.19960       -0.87582
H          2.69816        2.18979        0.89008
H          4.96404        1.50507       -0.01307
H          5.25788       -0.96066       -0.01379
H          3.32572       -2.49978       -0.00121
H         -2.43209       -2.51038        0.00018
H         -4.83517       -1.68168       -0.00839
H         -5.32429        0.73291       -0.00814
H         -3.46895        2.42964       -0.00244
