28
21887273.log	Energy: -475369.4320547
C          3.69146        1.25094        0.41780
C          2.28389        0.71330        0.16568
C          1.32465        1.65041        0.08763
O         -0.04316        1.60266       -0.11379
C         -0.77077        0.46432       -0.02715
C         -2.14308        0.47004       -0.06540
C         -3.15683        1.47856       -0.20650
C         -4.46174        1.10894       -0.19024
C         -4.85913       -0.28428       -0.03547
C         -3.95762       -1.28587        0.10250
C         -2.54478       -0.96405        0.09704
N         -1.50171       -1.77868        0.22632
C         -0.31556       -0.95118        0.13485
C          0.92134       -1.46807        0.15828
C          2.18325       -0.74476        0.00539
C          3.29679       -1.45945       -0.29614
C          4.60112       -0.79204       -0.41092
N          4.80840        0.44004       -0.07935
H          3.81982        2.26341       -0.03960
H          3.83797        1.38908        1.52001
H          1.50725        2.73141        0.15688
H         -2.83711        2.51343       -0.32268
H         -5.25966        1.84204       -0.29339
H         -5.93106       -0.49159       -0.03548
H         -4.23741       -2.33239        0.21812
H          1.01594       -2.56176        0.28580
H          3.27870       -2.53716       -0.44738
H          5.44604       -1.38808       -0.78490
