31
21886792.log	Energy: -442868.5796497
C          3.90872        1.14420        0.11769
C          4.91745        0.04427        0.01752
C          4.56641       -1.24610       -0.11341
C          3.16930       -1.64250       -0.16531
C          2.16652       -0.72960       -0.08835
C          2.46691        0.71494        0.05259
C          1.48434        1.64803        0.12319
C          0.09795        1.25400        0.05896
C         -1.06798        1.94346        0.09839
C         -2.20413        1.00270       -0.03020
C         -3.50491        1.33871       -0.07641
C         -4.63658        0.44858       -0.28264
C         -4.67330       -0.88175       -0.09924
C         -3.59105       -1.74125        0.36190
C         -2.26760       -1.50393        0.33629
N         -1.62788       -0.33677       -0.17667
C         -0.20283       -0.20418       -0.07198
C          0.76407       -1.14263       -0.14305
H          4.07905        1.70338        1.06858
H          4.10402        1.88556       -0.69390
H          5.95750        0.36243        0.05824
H          5.30868       -2.04010       -0.18600
H          2.96106       -2.70648       -0.27196
H          1.69501        2.71047        0.22488
H         -1.21315        3.00455        0.18688
H         -3.76906        2.39753        0.01564
H         -5.54239        0.96379       -0.62340
H         -5.60695       -1.42064       -0.29727
H         -3.92788       -2.70840        0.75222
H         -1.56299       -2.27508        0.68329
H          0.55249       -2.20134       -0.25604
