27
21887337.log	Energy: -428427.7310198
C         -2.35319       -1.66611        0.01476
C         -3.83088       -1.47503       -0.01544
C         -4.40551       -0.25507       -0.02618
C         -3.60549        0.95241       -0.01287
C         -2.24028        0.88996        0.00372
C         -1.54947       -0.41075        0.01168
C         -0.18433       -0.39924        0.01604
C          0.56645        0.88374        0.00969
C          1.89952        0.55348        0.00268
C          3.13121        1.29084       -0.00856
C          4.30874        0.61385       -0.01687
C          4.35777       -0.83953       -0.01494
C          3.23451       -1.59918       -0.00208
C          1.94550       -0.94197        0.00622
N          0.72652       -1.49473        0.01589
C         -0.20911        2.10794        0.01273
N         -1.51659        2.11842        0.01057
H         -2.06142       -2.28342        0.90570
H         -2.02836       -2.30984       -0.84501
H         -4.42306       -2.39125       -0.02581
H         -5.48928       -0.13339       -0.04574
H         -4.12212        1.91761       -0.01724
H          3.08393        2.37807       -0.00948
H          5.26204        1.14065       -0.02612
H          5.34630       -1.29980       -0.02383
H          3.25146       -2.68815        0.00121
H          0.31831        3.07168        0.01771
