25
21887396.log	Energy: -653351.7442170
C          4.47225        1.26342       -0.00714
C          4.92944       -0.05280        0.00343
C          4.03506       -1.14215        0.00924
C          2.68106       -0.85738        0.00465
C          2.20113        0.50570       -0.00351
C          3.09280        1.55959       -0.01007
C          0.73710        0.41755       -0.00246
C         -0.25476        1.31585       -0.00484
C         -1.66214        0.85065        0.00017
N         -2.58205        1.77985        0.00862
C         -3.95980        1.49601        0.01419
C         -4.50018        0.26188        0.00576
S         -3.54373       -1.17418       -0.01275
C         -1.89335       -0.61312       -0.00279
C         -0.90446       -1.53149        0.00164
C          0.47493       -1.07807        0.00315
N          1.58018       -1.79659        0.00750
H          5.18872        2.08412       -0.01252
H          6.00163       -0.25190        0.00695
H          4.39460       -2.16964        0.01700
H          2.75055        2.59213       -0.01712
H         -0.09269        2.39657       -0.00818
H         -4.57277        2.41011        0.02597
H         -5.57766        0.08063        0.00758
H         -1.07400       -2.61174        0.00285
