32
2204010.log	Energy: -512728.3774342
C         -6.85993       -0.19584        0.13761
C         -5.55289        0.56717        0.05319
O         -4.54581       -0.49140        0.15256
C         -3.22183       -0.13756        0.07080
C         -2.35320       -1.25056        0.10944
C         -0.98331       -1.04676        0.04670
C         -0.47538        0.26597       -0.05813
C         -1.34845        1.36663       -0.09731
C         -2.72963        1.16962       -0.03146
N          0.93528        0.53743       -0.11692
C          1.93317       -0.42317       -0.23512
O          1.77178       -1.61998       -0.28896
C          3.33147        0.25490       -0.28469
O          3.52753        1.44671       -0.36232
O          4.29399       -0.68808       -0.23277
C          5.69742       -0.24296       -0.25258
C          6.08720        0.27160        1.11415
H         -6.92682       -0.95775       -0.65250
H         -7.72185        0.47314        0.03935
H         -6.94950       -0.73152        1.09324
H         -5.42182        1.08492       -0.91217
H         -5.40897        1.26412        0.89593
H         -2.77395       -2.25228        0.18769
H         -0.29994       -1.90441        0.07437
H         -0.96145        2.38181       -0.17981
H         -3.39312        2.02775       -0.06112
H          1.20469        1.53107       -0.11020
H          6.19545       -1.19234       -0.52633
H          5.81398        0.51219       -1.04930
H          5.80307       -0.43347        1.90782
H          7.17000        0.43297        1.18790
H          5.59558        1.22969        1.33985
