30
221502.log	Energy: -501788.2255716
C         -5.17009       -1.09623        0.00788
C         -3.77380       -0.56666       -0.00524
C         -2.68937       -1.40420       -0.00381
C         -1.34405       -0.89076       -0.00337
C         -1.13535        0.52812       -0.00459
C          0.15960        1.05421       -0.00498
C          1.27231        0.20334       -0.00220
C          1.07948       -1.21904       -0.00014
C         -0.22344       -1.73682       -0.00028
C          2.23579       -2.08879       -0.00013
C          3.50256       -1.58912       -0.00151
C          3.70290       -0.16697        0.00059
C          2.62713        0.69739       -0.00084
O          2.93813        2.04377        0.00172
O          5.01333        0.24117        0.00541
C         -2.31941        1.36394       -0.00222
C         -3.59176        0.86119       -0.00198
O         -2.04468        2.71069        0.00134
H         -5.59088       -1.05378        1.02431
H         -5.22930       -2.14255       -0.32176
H         -5.83804       -0.51676       -0.64423
H         -2.81707       -2.48421       -0.00152
H          0.29408        2.13946       -0.00796
H         -0.37138       -2.81649        0.00173
H          2.06231       -3.16523       -0.00110
H          4.39072       -2.22251       -0.00213
H          2.11783        2.60062        0.01375
H          5.06818        1.23838        0.00571
H         -4.46611        1.50145        0.00339
H         -2.86953        3.25887       -0.00102
