30
2218337.log	Energy: -405688.3421433
C         -2.03031        2.09522        0.81451
C         -1.22934        1.03574        0.13699
C         -1.80203       -0.30238       -0.03536
N         -1.01051       -1.35080       -0.28184
O         -1.40491       -2.52352       -0.45251
C          0.48887       -1.14451       -0.38000
H          0.89280       -1.95161       -1.05229
C          1.10457       -1.30456        1.02115
C          2.61222       -1.03833        0.97151
C          2.90500        0.35288        0.40025
C          2.29296        0.53425       -0.99229
C          0.78736        0.22774       -1.02314
H          0.44018        0.22510       -2.09405
N         -0.00857        1.32316       -0.32962
O          0.52820        2.44617       -0.24761
C         -3.27659       -0.49270        0.06697
H         -2.89646        2.39238        0.20588
H         -1.42992        3.00721        0.98812
H         -2.40040        1.75291        1.79057
H          0.90298       -2.32743        1.40085
H          0.62136       -0.61166        1.73978
H          3.11828       -1.81520        0.36585
H          3.03828       -1.12631        1.99020
H          2.50606        1.13659        1.07937
H          3.99715        0.52490        0.35310
H          2.45135        1.58618       -1.32611
H          2.80769       -0.11235       -1.72825
H         -3.57157       -1.52215       -0.20934
H         -3.63097       -0.32089        1.09346
H         -3.81589        0.19464       -0.59945
