30
2223660.log	Energy: -675781.6650977
C          3.47967        2.02080        0.95462
C          3.27962        0.65152        0.45869
C          2.14622        0.07342       -0.07059
S          2.45932       -1.57929       -0.47383
N          4.13072       -1.42853        0.07100
N          4.37497       -0.28581        0.49676
C          0.83851        0.72471       -0.23839
O          0.50319        1.74528        0.34343
N         -0.01699        0.13906       -1.18466
N         -1.31793        0.63741       -1.42586
C         -2.35623        0.16480       -0.51489
C         -2.26121       -0.95863        0.21494
C         -3.40146       -1.49442        1.02787
C         -4.51392       -0.45831        1.25097
C         -4.82788        0.28928       -0.05039
C         -3.58773        1.03534       -0.56468
H          4.03021        2.03714        1.91071
H          2.51109        2.53823        1.11598
H          4.06365        2.62950        0.24335
H          0.17742       -0.72177       -1.69808
H         -1.28193        1.67949       -1.43408
H         -1.35749       -1.55930        0.25474
H         -3.02579       -1.85432        2.00725
H         -3.81564       -2.38726        0.51219
H         -4.20035        0.26269        2.03092
H         -5.42301       -0.95437        1.63686
H         -5.17656       -0.42843       -0.81902
H         -5.65677        1.00384        0.10702
H         -3.77732        1.39371       -1.59772
H         -3.41099        1.94118        0.05415
