28
222853.log	Energy: -404944.3846528
C         -3.17693        0.27963       -1.59658
C         -2.10613       -0.68126       -1.08284
N         -1.15762        0.06440       -0.18903
C         -1.73362        0.44402        1.13905
C         -2.06688       -0.73228        2.05528
C          0.15541       -0.52360       -0.10035
C          0.39077       -1.91438       -0.16859
C          1.68896       -2.41633       -0.16695
C          2.78929       -1.54984       -0.09750
C          2.58240       -0.17468       -0.03337
C          1.27473        0.33510       -0.02824
N          1.12299        1.81168        0.00922
O          1.52871        2.43525       -0.95357
O          0.64702        2.30942        1.01549
H         -3.86910        0.59048       -0.80566
H         -3.76712       -0.18241       -2.39542
H         -2.72453        1.19570       -2.00461
H         -2.58005       -1.54685       -0.57122
H         -1.53103       -1.08248       -1.94867
H         -1.00775        1.12983        1.64302
H         -2.64425        1.05211        0.93820
H         -1.18147       -1.34110        2.27433
H         -2.45675       -0.37424        3.01631
H         -2.82660       -1.39232        1.62308
H         -0.45274       -2.60223       -0.21172
H          1.85377       -3.49402       -0.21889
H          3.80208       -1.95036       -0.09991
H          3.43408        0.50960        0.00509
