16
22311913.log	Energy: -317630.4296019
C         -2.03136       -1.51309        0.00026
C         -0.75704       -1.98618       -0.00049
C          0.34057       -1.06648        0.00041
N          1.63512       -1.20435       -0.00035
C          2.24236        0.14518       -0.00078
O          3.38871        0.43706        0.00158
N          1.09663        1.16318       -0.00243
C          0.00674        0.47860        0.00014
C         -1.41700        0.87360        0.00102
C         -2.37244       -0.11284        0.00052
N         -1.69692        2.22053        0.00002
H         -2.87377       -2.21403       -0.00013
H         -0.52180       -3.05123       -0.00075
H         -3.43040        0.13794        0.00078
H         -0.95543        2.90591        0.00569
H         -2.64313        2.55656       -0.00535
