35
22325167.log	Energy: -363770.2461984
C         -4.66043        1.11635       -0.21937
C         -3.28572        1.67177       -0.61945
C         -2.15729        0.95237        0.13115
C         -2.21557       -0.56812       -0.11596
C         -3.58987       -1.12244        0.31388
C         -4.72784       -0.40382       -0.42453
C         -1.08690       -1.29486        0.64753
C          0.26664       -0.94310        0.11192
C          1.27542       -0.51534        0.88131
C          2.61037       -0.17632        0.36395
C          3.28953        0.93915        0.88672
C          4.56016        1.27204        0.41391
C          5.16916        0.49533       -0.57777
C          4.50067       -0.61763       -1.09574
C          3.22767       -0.95473       -0.62959
H         -5.45357        1.61211       -0.80858
H         -4.86566        1.36011        0.84061
H         -3.14030        1.56286       -1.71118
H         -3.24295        2.75706       -0.41177
H         -2.23396        1.16124        1.21440
H         -1.17520        1.34874       -0.18787
H         -2.08765       -0.75550       -1.20981
H         -3.72034       -1.00203        1.40577
H         -3.64181       -2.20813        0.11563
H         -5.70322       -0.78640       -0.07099
H         -4.68066       -0.63628       -1.50561
H         -1.16503       -1.07372        1.73053
H         -1.22725       -2.39357        0.56308
H          0.37814       -1.05865       -0.96813
H          1.15447       -0.38288        1.95854
H          2.81998        1.54817        1.65647
H          5.07969        2.13882        0.81908
H          6.15997        0.75632       -0.94233
H          4.97388       -1.22551       -1.86516
H          2.71543       -1.82676       -1.03044
