34
223853.log	Energy: -456779.6902213
C          7.56767       -0.29757        0.14211
C          6.60485       -1.14540        0.69659
C          5.25327       -0.79129        0.66508
C          4.85364        0.42268        0.08138
C          5.82861        1.27471       -0.47079
C          7.17582        0.91169       -0.44285
C          3.44136        0.82815        0.03860
C          2.41495       -0.03242       -0.06939
C          1.02115        0.40485       -0.10554
C         -0.00755       -0.45853       -0.19284
C         -1.40078       -0.02184       -0.21729
C         -2.43208       -0.88487       -0.27781
C         -3.82401       -0.44309       -0.28919
C         -4.85936       -1.30056       -0.34422
C         -6.26153       -0.88748       -0.36888
C         -6.74122        0.20959        0.23543
C         -8.17216        0.58946        0.18187
O         -8.59222        1.59000        0.72423
H          8.61940       -0.57554        0.16585
H          6.90669       -2.08602        1.15490
H          4.51099       -1.45419        1.10616
H          5.53011        2.21608       -0.92873
H          7.92498        1.57217       -0.87697
H          3.27154        1.90779        0.08839
H          2.58466       -1.11062       -0.13934
H          0.85185        1.48410       -0.05470
H          0.16217       -1.53716       -0.24679
H         -1.56918        1.05861       -0.18069
H         -2.26525       -1.96439       -0.31621
H         -3.99005        0.63897       -0.26016
H         -4.69847       -2.38148       -0.38903
H         -6.92374       -1.56229       -0.92557
H         -6.11020        0.88860        0.81345
H         -8.84356       -0.08304       -0.37793
