28
223828.log	Energy: -477815.0236490
C          4.96898       -0.14294        0.08213
C          4.51220        1.10172        0.60769
C          3.16901        1.36917        0.69071
C          2.20993        0.40122        0.25075
C          0.80603        0.65718        0.32747
C         -0.10271       -0.29002       -0.09537
C          0.36085       -1.53600       -0.63146
C          1.70294       -1.79858       -0.71830
C          2.66531       -0.83615       -0.27377
C          4.07176       -1.08826       -0.34790
C         -1.55468       -0.05370       -0.00332
C         -2.41251       -0.98620        0.44079
C         -3.88800       -0.77666        0.47487
O         -4.63898       -1.54006        1.03714
C         -4.39090        0.43540       -0.25306
C         -3.55367        1.38063       -0.67955
C         -2.07942        1.30439       -0.42146
O         -1.37929        2.28516       -0.51450
H          6.04171       -0.32557        0.02993
H          5.24970        1.83161        0.93884
H          2.80933        2.31825        1.08781
H          0.46860        1.62296        0.71466
H         -0.37149       -2.26506       -0.97716
H          2.06032       -2.74307       -1.12796
H          4.41222       -2.04104       -0.75076
H         -2.08117       -1.96220        0.80900
H         -5.47354        0.47751       -0.39554
H         -3.88027        2.27859       -1.21133
