28
224136.log	Energy: -644062.2593427
C         -3.74959       -1.71074        0.66075
C         -2.75759       -2.30821       -0.16916
C         -1.75084       -1.54384       -0.70454
C         -1.68093       -0.14164       -0.43409
C         -2.67409        0.45582        0.38482
C         -3.71219       -0.36619        0.93042
C         -2.62584        1.86005        0.65453
C         -1.62254        2.63351        0.12771
C         -0.60999        2.05533       -0.68362
C         -0.63606        0.70212       -0.96492
N          0.29796        0.14757       -1.88798
C          1.50204       -0.22206       -1.61418
C          2.19948       -0.20231       -0.33381
C          1.72283       -0.09221        0.94281
C          2.76119       -0.12593        1.94440
C          4.01356       -0.25803        1.42595
S          3.93837       -0.34843       -0.30593
H         -4.53721       -2.34113        1.07148
H         -2.81673       -3.37570       -0.37260
H         -0.99724       -1.99274       -1.35264
H         -4.46950        0.10030        1.55798
H         -3.40090        2.29883        1.27929
H         -1.58093        3.70501        0.32311
H          0.17428        2.69302       -1.08713
H          2.09070       -0.61409       -2.46965
H          0.67565        0.00845        1.20950
H          2.53155       -0.04921        2.99971
H          4.95386       -0.30491        1.94916
