29
225457.log	Energy: -428714.3312070
C         -3.70107       -0.19300       -0.10780
C         -2.98763       -0.84087        1.08505
C         -1.62428       -1.42014        0.67018
N         -0.79348       -0.31706        0.08449
C         -1.43487        0.27890       -1.13722
C         -2.79915        0.86800       -0.74989
C          0.60022       -0.62096       -0.07169
C          1.09387       -1.93724       -0.22090
C          2.46199       -2.18435       -0.26884
C          3.38295       -1.13146       -0.16978
C          2.92237        0.17233       -0.01319
C          1.54296        0.42799        0.03265
N          1.12615        1.83661        0.24532
O          1.36083        2.33031        1.33136
O          0.61748        2.42501       -0.69478
H         -4.65110        0.26717        0.22298
H         -3.97673       -0.96224       -0.85361
H         -2.83829       -0.08527        1.88396
H         -3.61052       -1.64097        1.52454
H         -1.76933       -2.26439       -0.03790
H         -1.09786       -1.81748        1.56562
H         -1.55401       -0.47788       -1.94198
H         -0.77692        1.08551       -1.53925
H         -3.28139        1.30113       -1.64562
H         -2.64733        1.71019       -0.04298
H          0.39665       -2.76872       -0.31360
H          2.82373       -3.20727       -0.38962
H          4.45211       -1.33297       -0.20840
H          3.63153        0.99869        0.08309
