34
225407.log	Energy: -477569.6695230
C          1.16780       -0.99891        1.59041
C          2.26987       -0.49366        0.72871
C          3.45830       -1.11686        0.65459
C          4.59957       -0.57669       -0.12700
O          5.58847       -1.23026       -0.37885
C          4.45565        0.84573       -0.55759
C          3.27685        1.47222       -0.50704
C          2.03996        0.76338       -0.06089
N          0.93645        1.31572       -0.44015
C         -0.37774        0.79846       -0.25862
C         -1.30671        1.57746        0.45740
C         -2.63084        1.16743        0.55512
C         -3.06829       -0.02613       -0.06932
C         -2.13045       -0.78464       -0.80824
C         -0.80193       -0.38160       -0.89634
N         -4.38825       -0.51874        0.16260
C         -4.90184       -1.51688       -0.81697
C         -5.42324        0.50559        0.47933
H          0.46970       -1.63621        1.02229
H          0.56656       -0.18800        2.02932
H          1.53933       -1.60812        2.42765
H          3.66763       -2.04892        1.18173
H          5.37055        1.32022       -0.91411
H          3.14261        2.51142       -0.82301
H         -0.98358        2.50493        0.93116
H         -3.33044        1.77614        1.12615
H         -2.43579       -1.69966       -1.31288
H         -0.09273       -0.97203       -1.47648
H         -5.87542       -1.90058       -0.46950
H         -5.02768       -1.11812       -1.83570
H         -4.21671       -2.38176       -0.85917
H         -5.11116        1.08695        1.36486
H         -5.62299        1.20612       -0.34652
H         -6.36674        0.00146        0.74650
