17
22598234.log	Energy: -239859.3480104
C          2.81944       -0.17258       -0.64764
C          1.47004        0.07158       -0.12989
C          0.71531        1.27078       -0.14136
C         -0.55856        0.92892        0.45694
C         -1.45372       -0.04192       -0.14373
C         -0.68477       -1.27422       -0.16479
C          0.54891       -0.90811        0.45219
O         -0.04731       -0.03071        1.47471
C         -2.80574        0.16827       -0.66541
H          3.22550        0.68140       -1.20860
H          2.85125       -1.05414       -1.30835
H          3.52279       -0.37656        0.18011
H          1.00465        2.21410       -0.55461
H         -0.97090       -2.20010       -0.61291
H         -3.48996        0.47586        0.14761
H         -2.83183        0.97964       -1.41245
H         -3.23851       -0.73090       -1.12639
