26
22658.log	Energy: -451032.0948334
C          3.74575       -1.48743       -0.58129
C          4.53761       -0.40096       -0.18256
C          3.95037        0.76692        0.28821
C          2.54002        0.87380        0.35186
C          1.73399       -0.21795       -0.05816
C          2.35843       -1.39006       -0.51707
C          0.26096       -0.15690       -0.04127
C         -0.47163       -1.07861        0.72965
C         -1.86331       -1.04107        0.73588
C         -2.52672       -0.07175       -0.03358
C         -1.80945        0.85315       -0.81022
C         -0.41848        0.80762       -0.80912
N         -4.00141       -0.02379       -0.02592
O         -4.59456       -0.88678        0.60210
O         -4.54287        0.87795       -0.64629
N          1.96604        2.09675        0.75735
H          4.21462       -2.39939       -0.94212
H          5.62439       -0.47591       -0.23891
H          4.57245        1.60454        0.59366
H          1.73971       -2.23122       -0.83537
H          0.05602       -1.82402        1.32636
H         -2.44530       -1.75402        1.33030
H         -2.34975        1.59655       -1.40691
H          0.15415        1.51455       -1.41462
H          1.00840        2.07674        1.07868
H          2.54706        2.71164        1.30847
