30
227197.log	Energy: -501719.0888637
C         -0.14172        2.11571       -0.01476
C          1.27429        1.50310        0.02670
C          1.10132        0.01537        0.01470
C          2.05784       -0.92361        0.00076
C          3.47958       -0.68049       -0.00613
C          4.58084       -1.50753       -0.04068
C          5.74557       -0.66276       -0.02900
C          5.29674        0.63159        0.01327
O          3.90115        0.66913        0.02832
C         -0.36682       -0.31608        0.01465
O         -0.81233       -1.44062        0.02887
C         -1.12694        0.97052       -0.00546
C         -2.45546        1.16245       -0.01514
C         -3.49819        0.17055       -0.00565
C         -3.63128       -1.19820        0.01753
C         -5.04008       -1.49104        0.01280
C         -5.69723       -0.28814       -0.01447
O         -4.79208        0.76773       -0.02696
H         -0.27583        2.73996       -0.91852
H         -0.30787        2.78441        0.85096
H          1.89222        1.83481       -0.83208
H          1.83485        1.82359        0.92805
H          1.77771       -1.98988       -0.00732
H          4.59356       -2.58019       -0.07196
H          6.76126       -1.00920       -0.05018
H          5.74299        1.60014        0.04039
H         -2.84686        2.19486       -0.03087
H         -2.83578       -1.93070        0.03670
H         -5.46477       -2.47642        0.02839
H         -6.71615        0.02996       -0.03004
