23
227329.log	Energy: -711632.3739070
C         -3.40950        0.07038       -0.26002
C         -3.52071       -1.29823        0.07540
C         -2.38879       -2.08537        0.25540
C         -1.13899       -1.47937        0.09813
C         -1.00597       -0.10840       -0.23182
C         -2.16801        0.66936       -0.41456
C          0.38501        0.30508       -0.34524
C          1.24086       -0.74076       -0.11937
S          0.42209       -2.23934        0.26027
N          2.68381       -0.79772       -0.14266
O          3.30435        0.19767       -0.48694
O          3.18207       -1.86342        0.17696
C          0.79487        1.69318       -0.68927
C          0.31630        2.69489        0.32277
O          0.65716        2.88817        1.45956
O         -0.66111        3.48401       -0.25304
H         -4.31865        0.65651       -0.39746
H         -4.51316       -1.73708        0.19133
H         -2.47223       -3.14095        0.51150
H         -2.08106        1.72826       -0.67408
H          1.91951        1.77268       -0.76190
H          0.42356        1.95756       -1.71214
H         -0.98828        4.20054        0.35604
