19
22796319.log	Energy: -285118.6896999
C          2.94761       -0.14203        0.01938
C          2.23860       -0.62797       -1.08404
C          0.84126       -0.60870       -1.08465
C          0.15013       -0.09583        0.02368
C          0.86141        0.38821        1.13294
C          2.25812        0.36256        1.12688
C         -1.32860       -0.05609        0.02414
C         -2.05303        1.08326       -0.16907
N         -1.48367        2.30682       -0.50206
C         -1.99389       -1.29558        0.23743
N         -2.53233       -2.30504        0.41736
H          4.03588       -0.16046        0.01831
H          2.77540       -1.02630       -1.94400
H          0.28401       -0.99117       -1.93920
H          0.32427        0.76478        2.00106
H          2.81021        0.73113        1.99011
H         -3.15402        1.06262       -0.13971
H         -2.01124        3.14627       -0.33274
H         -0.48220        2.41366       -0.42102
