25
22806.log	Energy: -679018.1882436
C          4.19783       -0.12512       -0.00124
C          3.78820       -1.45956        0.00196
C          2.42405       -1.77607        0.00426
C          1.46738       -0.75362        0.00167
C          1.88075        0.58888       -0.00075
C          3.24424        0.90089       -0.00285
C          0.88263        1.69886       -0.00117
O          1.22897        2.86287       -0.00194
C         -0.56794        1.31922        0.00047
C         -0.98869       -0.03472        0.00122
C          0.02069       -1.12503        0.00078
O         -0.29717       -2.30564       -0.00104
C         -2.36163       -0.29979        0.00103
C         -3.30642        0.75010        0.00316
C         -2.87524        2.06715        0.00248
C         -1.49745        2.35417        0.00052
S         -3.10037       -1.88574       -0.00326
H          5.26002        0.12268       -0.00264
H          4.52921       -2.26006        0.00287
H          2.09326       -2.81996        0.00677
H          3.55414        1.95098       -0.00494
H         -4.37686        0.52481        0.00493
H         -3.59670        2.88603        0.00311
H         -1.15130        3.39354       -0.00121
H         -2.01075       -2.71605       -0.00202
