25
229088.log	Energy: -435503.1232225
C         -1.27741       -3.36357       -0.02972
C         -1.22951       -1.88131       -0.00173
C         -2.34502       -1.05925        0.00599
C         -2.25018        0.35719        0.01047
C         -0.99123        0.96898        0.00439
C          0.18008        0.16534        0.00190
C          1.57079        0.38753       -0.00605
C          2.18879       -0.92937        0.00060
N          1.23262       -1.92421       -0.01430
N          0.01794       -1.25887       -0.00068
N          3.54116       -1.19648        0.09839
C          2.26570        1.60587       -0.01276
N          2.87063        2.59377       -0.02549
C         -0.86692        2.38788       -0.00218
N         -0.79551        3.54224       -0.01075
C         -3.49116        1.17684        0.02099
H         -0.73871       -3.76940       -0.90669
H         -2.30193       -3.75843       -0.05240
H         -0.76617       -3.80027        0.84930
H         -3.33524       -1.51774        0.00836
H          4.18600       -0.46336       -0.16288
H          3.85418       -2.13854       -0.09259
H         -3.54582        1.81457        0.92079
H         -3.53215        1.86325       -0.84266
H         -4.41152        0.57799       -0.00279
