28
2301665.log	Energy: -428637.2421055
C         -2.09662        2.47985        0.08112
C         -2.61470        1.07799        0.03334
C         -3.99571        0.85339        0.02559
C         -4.51847       -0.44284       -0.01950
C         -3.65407       -1.53767       -0.05632
C         -2.27126       -1.34465       -0.04585
C         -1.74259       -0.04489        0.00046
N         -0.32768        0.19098        0.01729
C          0.66878       -0.78484       -0.00477
O          0.45152       -1.98562       -0.01326
C          2.09841       -0.27096       -0.00167
C          3.14056       -1.20708        0.09680
C          4.45965       -0.74008        0.08578
C          4.70003        0.63079       -0.01740
C          3.60023        1.50518       -0.10797
N          2.31767        1.06944       -0.10199
H         -1.36662        2.67950       -0.71660
H         -1.61592        2.69498        1.04713
H         -2.89696        3.22284       -0.04282
H         -4.67680        1.70341        0.05579
H         -5.59567       -0.59334       -0.02530
H         -4.05309       -2.55070       -0.09136
H         -1.60182       -2.21285       -0.07087
H         -0.03391        1.17828        0.00822
H          2.90815       -2.27338        0.17493
H          5.28992       -1.44413        0.15751
H          5.71540        1.02236       -0.02671
H          3.73977        2.58999       -0.18858
