24
2305241.log	Energy: -416556.6887764
C          4.21800        0.69574        0.00916
C          3.98071       -0.55223       -0.57810
C          2.70395       -1.11360       -0.55674
C          1.65310       -0.41154        0.06795
C          1.88659        0.83409        0.67289
C          3.17141        1.38127        0.63221
N          0.36999       -1.05051        0.11997
C         -0.86013       -0.42622        0.00766
C         -1.09661        0.89161       -0.20906
C         -2.44193        1.46155       -0.24441
O         -2.67204        2.63685       -0.43869
C         -3.58840        0.50380       -0.01318
C         -3.39247       -0.80261        0.16923
C         -2.03652       -1.40301        0.14800
O         -1.83408       -2.59445        0.22573
H          5.21586        1.12958       -0.01790
H          4.79732       -1.08939       -1.06153
H          2.52771       -2.07946       -1.02584
H          1.08264        1.36669        1.18140
H          3.35589        2.35098        1.09645
H          0.37175       -2.08099        0.11379
H         -0.29309        1.61049       -0.38276
H         -4.57860        0.96760       -0.00934
H         -4.20659       -1.51422        0.33603
