28
23175278.log	Energy: -498628.3771996
C          3.20579       -1.42369        0.13333
C          4.00203       -0.31230        0.10880
C          3.40205        0.99086        0.00920
C          2.02452        1.12186       -0.06174
C          1.18432       -0.02914       -0.03135
C          1.77776       -1.31517        0.05878
C          0.95884       -2.48698        0.07125
C         -0.40433       -2.37784       -0.00013
C         -1.01906       -1.09351       -0.07160
C         -0.25689        0.07157       -0.09043
C         -0.90345        1.37465       -0.17904
C         -2.24789        1.52498       -0.06655
C         -3.11544        0.32345        0.24298
O         -4.17562        0.42321        0.80250
C         -2.49369       -1.03983       -0.16893
O         -3.20720       -1.93809       -0.53503
N         -2.93230        2.72548       -0.26695
N          4.24101        2.12986        0.07456
H          3.64619       -2.41925        0.21019
H          5.08517       -0.39633        0.17669
H          1.56277        2.10562       -0.12881
H          1.43866       -3.46271        0.13530
H         -1.04962       -3.26008       -0.00614
H         -0.25436        2.23563       -0.34884
H         -3.86566        2.78548        0.12707
H         -2.40445        3.58181       -0.19045
H          3.85513        2.99118       -0.28463
H          5.20034        1.99681       -0.21076
