22
232269.log	Energy: -506097.4763908
C         -3.75702        0.82094        0.31923
O         -2.65770        0.08633       -0.27799
C         -1.39526        0.61968       -0.12610
C         -0.35125       -0.28832       -0.05288
C          1.00249        0.15913       -0.00356
C          1.26108        1.55698       -0.00562
C          0.14687        2.47646       -0.05943
C         -1.13922        2.02498       -0.12187
N          2.52257        2.09058        0.04533
N          2.09401       -0.80999        0.05132
O          1.82899       -1.99574        0.07242
O          3.24650       -0.37407        0.07719
N         -0.70444       -1.75459       -0.03095
O         -0.93922       -2.22800        1.06026
O         -0.76483       -2.31359       -1.10276
H         -4.58209        0.10208        0.19973
H         -3.95241        1.73432       -0.24785
H         -3.56383        1.01753        1.37702
H          0.35510        3.54811       -0.05591
H         -1.98082        2.71879       -0.17924
H          2.66805        3.08518        0.03836
H          3.35509        1.49352        0.07654
