28
2324872.log	Energy: -511185.7147859
C         -5.52251       -0.51257        0.25700
O         -4.22538       -1.15430        0.28159
C         -3.10928       -0.36380        0.10808
C         -1.91636       -1.09282        0.14951
C         -0.69727       -0.41228       -0.02078
C         -0.72695        0.98179       -0.21668
C         -1.93084        1.71387       -0.25888
C         -3.12791        1.03628       -0.09575
O          0.42513        1.71851       -0.37184
C          1.70564        1.09806       -0.32750
O          2.59519        1.90532       -0.41510
C          1.73728       -0.36613       -0.18225
C          0.59179       -1.07329       -0.01482
C          3.04412       -1.06161       -0.23608
C          3.22760       -2.15705       -0.98979
N          4.18050       -0.49347        0.45816
O          3.78087        0.40770        1.47557
H         -6.19461       -1.37124        0.39359
H         -5.69614       -0.03337       -0.71042
H         -5.61539        0.19070        1.08941
H         -1.94355       -2.16966        0.31062
H         -1.89529        2.79313       -0.41522
H         -4.06834        1.58264       -0.12311
H          0.60678       -2.16013        0.12021
H          4.15615       -2.70450       -1.04098
H          2.47318       -2.55842       -1.64672
H          4.72057       -1.20126        0.97547
H          3.93481        1.32580        1.04586
