22
23253405.log	Energy: -275795.9992453
C          1.04053       -0.90415        1.24106
C          1.24147       -1.19921       -0.26090
H          1.87428       -2.10625       -0.39018
C         -0.18093       -1.45263       -0.82376
C         -1.17716       -0.89161        0.22323
C         -0.31099       -0.16531        1.30435
H         -0.77909       -0.29583        2.30674
C         -0.16423        1.30240        1.01623
C          0.66066        1.87958        0.13088
C          1.62247        1.26126       -0.78076
C          1.88704       -0.03958       -0.96941
C         -2.17595       -0.02031       -0.38520
N         -2.98007        0.65576       -0.86642
H          1.86177       -0.29800        1.65810
H          1.00861       -1.83842        1.82510
H         -0.35552       -2.52819       -0.98673
H         -0.30911       -0.96701       -1.80824
H         -1.71503       -1.74538        0.71441
H         -0.83237        1.93074        1.61253
H          0.63585        2.97490        0.04478
H          2.17790        1.99624       -1.37834
H          2.63565       -0.33579       -1.70767
