35
23257173.log	Energy: -467550.1092302
C         -4.28573       -2.06381       -0.16737
C         -3.88049       -1.69027        1.11817
C         -2.89748       -0.71192        1.28824
C         -2.31725       -0.10150        0.16612
C         -2.73032       -0.47018       -1.12315
C         -3.71171       -1.45134       -1.28584
C         -1.26417        0.92966        0.33542
C         -1.50938        2.21866        0.06592
C         -0.49849        3.32637        0.17449
O          0.40429        3.31698       -0.93602
C          0.07173        0.40613        0.81313
N          0.96398        0.21891       -0.37207
C          2.24572       -0.36825       -0.14180
C          2.93839       -0.18458        1.07077
C          4.23849       -0.67617        1.20253
C          4.85697       -1.35376        0.14841
C          4.16501       -1.53936       -1.05402
C          2.86668       -1.05804       -1.20784
H         -5.04850       -2.82968       -0.29670
H         -4.33124       -2.16330        1.98960
H         -2.58597       -0.42015        2.28947
H         -2.28994        0.01296       -1.99425
H         -4.03126       -1.73786       -2.28693
H         -2.49617        2.53449       -0.28219
H         -0.96743        4.32750        0.09746
H          0.08398        3.27124        1.11461
H          0.89425        2.45671       -0.97183
H          0.55289        1.13821        1.50477
H         -0.05892       -0.53623        1.39373
H          0.45490       -0.21179       -1.15369
H          2.47988        0.34905        1.89803
H          4.77625       -0.52546        2.13862
H          5.86908       -1.73251        0.26016
H          4.64493       -2.06651       -1.87860
H          2.34329       -1.20474       -2.14874
