29
23259895.log	Energy: -418568.9391945
C         -2.16669        2.66562        0.28516
C         -1.50111        2.10540        1.38051
C         -1.04175        0.78699        1.32587
C         -1.25389        0.02201        0.16895
C         -1.91929        0.58446       -0.93137
C         -2.37355        1.90380       -0.86950
C         -0.78151       -1.37998        0.11395
C          0.50639       -1.72925       -0.01744
C          1.63793       -0.78805       -0.11943
C          1.63164        0.31304       -0.99857
C          2.75659        1.13873       -1.05091
C          3.85706        0.85749       -0.23676
C          3.79349       -0.25962        0.61341
N          2.71250       -1.07635        0.67518
C         -1.84788       -2.44308        0.27491
O         -3.00493       -2.19642       -0.52855
H         -2.52179        3.69345        0.33141
H         -1.33702        2.69903        2.27900
H         -0.51429        0.35381        2.17526
H         -2.07878       -0.01388       -1.82982
H         -2.88936        2.34002       -1.72391
H          0.81180       -2.78299       -0.02797
H          0.76041        0.51355       -1.61990
H          2.77383        1.99775       -1.72182
H          4.74317        1.48528       -0.25797
H          4.63015       -0.52297        1.27100
H         -1.51626       -3.43703       -0.08978
H         -2.14974       -2.52365        1.33825
H         -3.44471       -1.36187       -0.25425
