26
232641.log	Energy: -521055.2915004
C          4.25795       -0.49338        0.00861
C          3.70698       -1.78758        0.00672
C          2.33011       -1.97589       -0.00053
C          1.48571       -0.84323       -0.00373
C          2.02318        0.45835       -0.00093
C          3.42368        0.61715        0.00478
C          1.14571        1.64813       -0.00475
O          1.57694        2.78584       -0.00928
C         -0.31275        1.36813       -0.00157
C         -0.80791        0.03191       -0.00392
N          0.07958       -1.03463       -0.00844
C         -2.22298       -0.17374       -0.00047
C         -3.08847        0.94420        0.00334
C         -2.58766        2.23650        0.00535
C         -1.20164        2.44593        0.00274
N         -2.83494       -1.49349        0.00015
O         -2.09519       -2.47953       -0.01175
O         -4.05072       -1.56968        0.01256
H          5.33955       -0.36705        0.01333
H          4.37112       -2.65461        0.01023
H          1.91089       -2.98056       -0.00315
H          3.83213        1.63401        0.00673
H         -0.29369       -2.00822       -0.01274
H         -4.17343        0.76539        0.00474
H         -3.26613        3.08962        0.00858
H         -0.79243        3.46638        0.00409
