13
23287913.log	Energy: -350079.9142392
C          0.35323        1.45965        0.00432
N          1.48764        0.73641       -0.00763
C          1.45377       -0.85699        0.00369
O          2.50548       -1.39802        0.02744
N          0.17275       -1.49219       -0.01519
C         -0.89624       -0.77172       -0.00910
C         -0.91300        0.80767        0.00744
N         -2.15514        1.21221        0.01714
C         -2.96644       -0.02473        0.00278
N         -2.28473       -1.15566       -0.01358
O          2.61114        1.22009       -0.01899
H          0.38928        2.55972        0.00812
H         -4.05377        0.07512        0.00425
