34
2331645.log	Energy: -464587.0458937
C         -4.95536        0.46985        0.30988
C         -3.88988        1.25710        1.08388
C         -2.77265        1.81148        0.18926
C         -1.69683        0.82200       -0.14216
C         -1.86641       -0.49331       -0.35118
C         -3.15906       -1.26647       -0.25291
C         -4.37244       -0.47145       -0.75227
N         -0.79061       -1.38465       -0.79310
N          0.51212       -0.83914       -0.80850
C          1.35247       -0.85811        0.31581
O          1.01425       -1.43617        1.33427
C          2.67873       -0.20505        0.11560
C          2.80361        1.09846       -0.40109
N          4.00658        1.70455       -0.55983
C          5.12501        1.02152       -0.19770
C          5.08026       -0.27677        0.33680
C          3.83898       -0.89400        0.50093
H         -5.56635       -0.11054        1.02867
H         -5.65603        1.17425       -0.17986
H         -3.44208        0.61235        1.86660
H         -4.37646        2.09020        1.62670
H         -3.20561        2.20641       -0.75486
H         -2.31282        2.68725        0.69378
H         -0.70938        1.27682       -0.21272
H         -3.09625       -2.21284       -0.83300
H         -3.31293       -1.57104        0.80471
H         -4.08600        0.10893       -1.65246
H         -5.15896       -1.17539       -1.08692
H         -0.78229       -2.25372       -0.21635
H          0.73586       -0.35511       -1.67839
H          1.92583        1.69155       -0.68766
H          6.07627        1.54818       -0.34621
H          5.99712       -0.78848        0.62375
H          3.76094       -1.89619        0.93113
