30
23431715.log	Energy: -509593.5874273
C          4.75981        0.74735       -0.23850
C          3.76460        1.68117       -0.00120
C          2.43299        1.27330        0.25595
C          2.12117       -0.10575        0.26962
C          3.13890       -1.04844        0.04843
C          4.45264       -0.63374       -0.21308
N          5.45628       -1.58737       -0.55016
C          0.76329       -0.61759        0.50935
C         -0.32709       -0.18100       -0.13809
C         -1.65694       -0.75616        0.17183
O         -1.91156       -1.46519        1.13414
N         -2.66073       -0.46996       -0.77392
C         -4.04548       -0.88018       -0.51151
C         -4.92183        0.32846       -0.25008
O         -4.74754        1.49006       -0.52597
O         -6.07626       -0.07680        0.37387
N          1.43006        2.27117        0.41373
H          5.77506        1.07556       -0.45476
H          4.00494        2.74362       -0.02844
H          2.89307       -2.10974        0.05632
H          5.28551       -2.52486       -0.21035
H          6.40401       -1.29882       -0.34648
H          0.68758       -1.41864        1.26019
H         -0.27163        0.59163       -0.90870
H         -2.52596        0.21785       -1.51091
H         -4.45502       -1.45209       -1.38001
H         -4.08234       -1.58306        0.37028
H         -6.69817        0.67639        0.56664
H          0.62014        1.98739        0.95376
H          1.77399        3.16870        0.73209
