30
2345221.log	Energy: -452477.7490592
C          2.58844       -1.50692        1.29384
C          2.06960       -0.87261        0.00239
C          2.45669        0.62683       -0.05868
C          3.69198        1.12472       -0.00414
N          1.25295        1.40005       -0.26191
C          0.12480        0.55009       -0.08900
C          0.54631       -0.81642        0.00066
C         -0.38075       -1.83510        0.07232
C         -1.75232       -1.51153        0.06658
C         -2.14423       -0.17488       -0.00889
C         -1.22322        0.88853       -0.08636
N         -3.59314        0.15176        0.00006
O         -4.38327       -0.77767       -0.05054
O         -3.91096        1.32891        0.05998
C          1.18609        2.81431        0.15947
C          2.58942       -1.60147       -1.23761
H          2.21726       -0.97944        2.18110
H          3.68424       -1.48676        1.33724
H          2.27535       -2.55383        1.37879
H          4.56787        0.50123        0.07605
H          3.92803        2.17471       -0.04846
H         -0.06837       -2.87682        0.13594
H         -2.50623       -2.30238        0.12137
H         -1.57223        1.92043       -0.14660
H          1.13183        2.93641        1.25408
H          2.07945        3.35061       -0.20818
H          0.30334        3.29707       -0.29536
H          3.68444       -1.57025       -1.28972
H          2.28570       -2.65392       -1.24240
H          2.20767       -1.14298       -2.15992
