20
23466211.log	Energy: -365855.1175619
C         -1.95335        1.80367       -0.20092
C         -0.60467        1.43233       -0.19268
C         -0.25590        0.07889       -0.06092
C         -1.25599       -0.89847        0.06544
C         -2.61153       -0.51161        0.06158
C         -2.96062        0.85133       -0.08050
N         -3.61870       -1.47565        0.28235
C          1.14199       -0.33019       -0.06266
C          1.70827       -1.54032       -0.23036
N          3.19589       -1.41869       -0.13466
N          3.54201       -0.25242        0.06993
C          2.30679        0.66255        0.14923
O          2.34504        1.83267        0.32469
H         -2.21746        2.85798       -0.30282
H          0.16613        2.19891       -0.28204
H         -0.99019       -1.94431        0.18694
H         -4.00414        1.15440       -0.07834
H         -3.38803       -2.43666        0.08045
H         -4.55595       -1.23184       -0.00094
H          1.30497       -2.52165       -0.41343
