23
234987.log	Energy: -459975.1269426
C         -1.28470       -1.53620        0.00171
C         -0.20306       -0.76237       -0.26486
N         -0.26169        0.62897       -0.41952
C         -1.48600        1.33737       -0.24486
O         -1.48654        2.53475       -0.42002
C         -2.70297        0.53835        0.19734
N         -3.76282        1.09345        0.63452
C         -2.63043       -1.00313        0.12830
O         -3.63278       -1.66724        0.17570
O          0.99691       -1.44593       -0.39954
N          2.12952       -0.59293       -0.65892
C          2.97321       -0.65686        0.57256
C          4.36285       -0.07039        0.28676
O          4.35026        1.35233        0.38662
H         -1.19386       -2.61926        0.10479
H          0.58068        1.15549       -0.69116
H         -3.82265        2.11159        0.68410
H          2.57418       -1.10359       -1.43920
H          2.47110       -0.04846        1.36479
H          3.05471       -1.68659        0.98743
H          5.08438       -0.36200        1.07912
H          4.76423       -0.36968       -0.69819
H          3.75601        1.74427       -0.28797
