23
235336.log	Energy: -447760.3886572
C          3.19117       -1.55999       -0.67167
C          4.09624       -0.49369       -0.43206
C          3.65446        0.73932        0.01474
C          2.26997        0.88664        0.21882
C          1.33926       -0.17808       -0.01272
C          1.82851       -1.41571       -0.47254
C          0.01915        0.34526        0.28537
C          0.18588        1.68116        0.68455
N          1.53379        2.01308        0.65468
C         -1.23137       -0.36761        0.20004
C         -2.43515        0.18850       -0.13264
C         -3.65203       -0.56652       -0.15865
N         -4.63892       -1.16730       -0.18285
C         -2.58189        1.56254       -0.50230
N         -2.70513        2.67203       -0.80437
C         -1.18067       -1.77880        0.50794
N         -1.13449       -2.90353        0.76625
H          3.58996       -2.51221       -1.02351
H          5.15955       -0.66093       -0.60697
H          4.34000        1.56108        0.19856
H          1.14660       -2.24172       -0.66891
H         -0.57030        2.38822        1.00075
H          1.92621        2.90740        0.89080
