35
235380.log	Energy: -467564.5458505
C          4.63314        0.23500       -1.73054
N          4.26461        0.35126       -0.29122
C          4.74439        1.63830        0.28566
C          2.92821       -0.02965        0.04399
C          2.32443        0.42585        1.23788
C          1.07685       -0.05700        1.62891
C          0.39271       -0.99391        0.84376
C          0.99017       -1.45555       -0.34048
C          2.23345       -0.98016       -0.74185
C         -0.94303       -1.52612        1.27585
C         -1.96316       -1.46702        0.15018
O         -2.16315       -2.43424       -0.55433
C         -2.73282       -0.19862       -0.03399
C         -2.21574        1.04935        0.33774
C         -2.97439        2.20623        0.13889
C         -4.24913        2.12063       -0.43043
C         -4.76535        0.87742       -0.81061
C         -4.00746       -0.27957       -0.61837
H          5.69898        0.48407       -1.85858
H          4.04049        0.88085       -2.39666
H          4.50976       -0.81320       -2.05633
H          4.19456        2.52140       -0.07441
H          4.66682        1.60007        1.38651
H          5.81264        1.76925        0.04705
H          2.83573        1.14458        1.87422
H          0.63837        0.30001        2.56019
H          0.46982       -2.19574       -0.95400
H          2.67147       -1.36118       -1.66250
H         -0.82075       -2.58922        1.59079
H         -1.32464       -0.99752        2.17200
H         -1.21571        1.12455        0.76850
H         -2.57029        3.17567        0.42519
H         -4.83929        3.02404       -0.58140
H         -5.75442        0.81109       -1.26082
H         -4.39423       -1.25479       -0.92606
