29
23557366.log	Energy: -438813.6863117
C         -0.89887        1.67282        1.73493
C         -1.11448        1.35589        0.24515
C         -2.02539        2.42403       -0.38956
C          0.17070        1.25742       -0.52251
N          1.18964        0.42362       -0.25252
C          1.23303       -0.48512        0.71515
C          2.39574       -1.38270        0.97686
O          3.47875       -1.25831        0.02161
C          3.65682        0.07984       -0.45312
C          2.37377        0.53034       -1.16816
N         -1.83750        0.02030        0.25250
N         -2.26087       -0.50170       -0.78040
O         -2.87578       -1.61813       -0.88882
O         -3.25917       -2.43152        0.25447
H         -0.32235        2.59636        1.84925
H         -0.35280        0.87107        2.25013
H         -1.85217        1.79245        2.26368
H         -1.57370        3.41943       -0.31531
H         -2.21781        2.22465       -1.45027
H         -2.99909        2.47001        0.11382
H          0.24944        1.93285       -1.36818
H          0.38366       -0.61947        1.39234
H         -2.49809       -3.06198        0.31386
H          2.12479       -2.45310        0.87104
H          2.82394       -1.19532        1.98122
H          3.92177        0.74745        0.38617
H          4.50850       -0.01340       -1.15224
H          2.48111        1.56872       -1.55061
H          2.18568       -0.12666       -2.05253
