25
23650569.log	Energy: -608977.1168961
C         -4.51485        1.58581        0.00242
C         -5.00528        0.26481        0.01904
C         -4.13178       -0.82155        0.02118
C         -2.76405       -0.55715        0.00768
C         -2.25141        0.76221       -0.00872
C         -3.14753        1.84481       -0.01102
C         -0.79866        0.80228       -0.02261
C         -0.21907       -0.42730       -0.01539
S         -1.44612       -1.70515        0.00918
C          1.16826       -0.82717       -0.02653
C          2.19314        0.04701       -0.01365
C          3.59019       -0.38216       -0.02350
C          4.61404        0.48324        0.00707
C          6.03254        0.05000        0.00166
O          6.94576        0.84660        0.04066
H         -5.22324        2.41384       -0.00013
H         -6.08145        0.09556        0.02932
H         -4.50701       -1.84316        0.03309
H         -2.77154        2.86560       -0.02334
H         -0.26609        1.74409       -0.03871
H          1.35607       -1.90831       -0.04465
H          2.01978        1.12685        0.00475
H          3.76327       -1.46429       -0.05508
H          4.47078        1.56668        0.03796
H          6.21787       -1.03629       -0.04109
