26
241137.log	Energy: -427900.4437745
C          3.44920        1.27808       -0.00409
C          3.92446       -0.03123       -0.00043
C          3.02572       -1.11651       -0.00005
C          1.67041       -0.84696        0.00121
C          1.17499        0.49887       -0.00026
C          2.06959        1.56039       -0.00560
C         -0.28848        0.46438        0.00500
C         -0.71564       -0.89921       -0.00108
C          0.51850       -1.79540        0.00149
O          0.53517       -2.99903        0.00909
C         -2.02896       -1.27698        0.00040
C         -3.01273       -0.23117        0.00314
C         -2.63655        1.11662        0.02465
C         -1.26134        1.47691        0.00723
N         -0.91197        2.82794       -0.05462
N         -4.36303       -0.58330       -0.06442
H          4.15670        2.10828       -0.00853
H          4.99514       -0.22271        0.00016
H          3.39000       -2.14440       -0.00010
H          1.72737        2.59115       -0.02141
H         -2.31837       -2.32400       -0.01305
H         -3.39062        1.89568        0.02250
H          0.04584        3.08859        0.13862
H         -1.59788        3.52210        0.18815
H         -5.06449        0.10988        0.13122
H         -4.63498       -1.53147        0.13327
