27
241804.log	Energy: -415434.0928567
C         -3.15550       -1.98744        0.00086
C         -3.70564       -0.70908       -0.03192
C         -2.87978        0.43358       -0.04353
C         -1.50727        0.26212       -0.01148
C         -0.94204       -1.05906        0.01335
C         -1.76013       -2.17647        0.02126
C          0.52004       -0.93951        0.01701
C          0.86147        0.45300       -0.00366
C         -0.39998        1.25532       -0.00033
N         -0.35723        2.55718        0.04210
N         -1.47426        3.32835       -0.05124
C          2.17442        0.87283       -0.01337
C          3.18942       -0.12446       -0.00603
C          2.86041       -1.49432        0.02266
C          1.51923       -1.90062        0.02762
N          4.53959        0.27264       -0.10431
H         -3.80879       -2.85919        0.00700
H         -4.78636       -0.58300       -0.05484
H         -3.33117        1.42224       -0.08733
H         -1.34082       -3.17883        0.03950
H         -2.37464        2.95360        0.25390
H         -1.29941        4.26609        0.31099
H          2.42094        1.93154       -0.04379
H          3.64547       -2.24467        0.02321
H          1.27153       -2.96094        0.04045
H          5.23826       -0.39065        0.19273
H          4.76052        1.22132        0.15749
