25
24256215.log	Energy: -665994.6233972
C         -3.08742       -1.08009       -0.88744
C         -1.85371       -0.42674       -0.87352
C         -1.69985        0.73820       -0.10467
C         -2.81408        1.20444        0.63090
N         -4.01182        0.57141        0.62722
C         -4.14240       -0.55364       -0.12478
C         -0.44327        1.49076       -0.06410
C          0.78501        0.96241        0.10119
C          1.08472       -0.44530        0.27527
C          0.67708       -1.32640        1.23320
C          1.20827       -2.65724        1.04306
C          2.01302       -2.77384       -0.04739
S          2.13716       -1.24615       -0.87233
C          1.97557        1.85927        0.15188
O          2.99271        1.77760        0.79278
O          1.78872        2.94137       -0.68923
H         -3.23038       -1.98240       -1.47865
H         -1.01574       -0.81409       -1.45749
H         -2.74929        2.10696        1.25118
H         -5.12805       -1.03382       -0.10312
H         -0.55680        2.58034       -0.18222
H          0.03059       -1.08283        2.06637
H          0.97157       -3.46187        1.72763
H          2.53534       -3.64369       -0.40715
H          2.56175        3.56725       -0.67983
