24
242644.log	Energy: -463017.1401872
C          4.70337        1.28293        0.19297
C          4.05490       -0.05670       -0.00551
O          4.71879       -1.06240       -0.15184
C          2.56166       -0.11571       -0.00816
C          1.75343        1.02629       -0.07186
C          0.36223        0.91760       -0.07329
C         -0.22676       -0.35541       -0.01249
C          0.57302       -1.51663        0.05121
C          1.95792       -1.38561        0.04893
N         -1.64931       -0.54320       -0.01308
C         -2.59721        0.48111       -0.08421
O         -2.37455        1.66316       -0.16500
C         -4.04659       -0.06992       -0.10098
O         -4.71066       -0.38338       -1.05062
O         -4.50054       -0.15167        1.18122
H          5.79549        1.17371        0.29195
H          4.34404        1.78909        1.09770
H          4.52803        1.95049       -0.66080
H          2.20205        2.02047       -0.12588
H         -0.25526        1.82055       -0.12642
H          0.12479       -2.50692        0.09670
H          2.59745       -2.27574        0.08873
H         -1.97061       -1.51442        0.06088
H         -5.46098       -0.42823        1.23900
