27
243433.log	Energy: -544442.7420893
C         -2.20537        2.39404       -0.46670
C         -0.87988        1.74211       -0.28813
C         -0.74062        0.32017       -0.27721
C          0.55140       -0.24711       -0.15847
C          1.68467        0.58804       -0.05394
C          1.53616        1.96939       -0.03104
C          0.25820        2.53546       -0.14523
C          3.07506        0.03415       -0.01496
O          3.69560       -0.51291       -0.89233
O          3.65395        0.31613        1.19527
N          0.73712       -1.71566       -0.10186
O         -0.06800       -2.41218       -0.70957
O          1.66360       -2.14841        0.55335
N         -1.87337       -0.53271       -0.42779
C         -3.04325       -0.47712        0.38074
O         -3.19759        0.37744        1.22662
C         -4.03412       -1.55489        0.06152
H         -2.80394        1.91328       -1.25420
H         -2.12921        3.45853       -0.72200
H         -2.80269        2.32704        0.46784
H          2.41069        2.61676        0.07536
H          0.15904        3.62462       -0.13055
H          4.57437       -0.06535        1.27274
H         -1.71099       -1.38118       -1.00453
H         -4.99772       -1.34191        0.55594
H         -4.23850       -1.66168       -1.01259
H         -3.70137       -2.53756        0.43321
