18
244897.log	Energy: -286838.5730660
C         -1.87249       -1.44537       -0.67239
O         -1.84839        0.00017       -0.52641
C         -1.13370        0.55755        0.49553
C         -0.61884        1.80880        0.18911
C          0.33478        1.46481       -0.88705
C          1.48392        1.05926       -0.26817
C          1.62882       -0.40024       -0.08885
O          2.21193       -1.24130       -0.71776
C          0.79007       -0.75216        1.15736
C         -0.44806       -0.32015        1.47161
H         -2.51816       -1.57519       -1.55082
H         -2.31694       -1.90559        0.21348
H         -0.86556       -1.82653       -0.86675
H         -0.50449        2.62931        0.86750
H         -0.00927        1.12953       -1.86010
H          1.93417        1.64726        0.53400
H          1.33498       -1.41605        1.83428
H         -0.95003       -0.58876        2.39876
