17
246513.log	Energy: -305202.4878528
C         -0.54260        1.70535        0.00634
C         -1.81912        1.21918        0.01607
C         -2.02222       -0.21421        0.01002
N         -1.00811       -1.11714        0.02757
C          0.27943       -0.62436        0.01056
N          1.33586       -1.54516        0.01230
C          2.56546       -1.05051       -0.00093
C          2.83493        0.37229       -0.01469
N          1.85776        1.26909       -0.01283
C          0.55996        0.78774        0.00084
N         -3.31055       -0.73463       -0.08223
H         -0.32758        2.77740        0.00355
H         -2.67988        1.88323        0.01049
H          3.39801       -1.76707       -0.00257
H          3.86811        0.73556       -0.02963
H         -3.42796       -1.73550        0.02512
H         -4.09043       -0.17162        0.21005
