27
247358.log	Energy: -441094.0953681
C         -1.16647        2.70632        0.40144
C         -2.38453        1.93615       -0.15496
C         -2.20298        0.44933       -0.06803
C         -0.91056       -0.03759       -0.04831
C          0.33043        0.76637       -0.07365
C          1.40298       -0.07515       -0.03160
C          0.92394       -1.50328        0.01816
O          1.59766       -2.50128        0.05632
C         -0.59108       -1.41872        0.00906
C         -1.60233       -2.35021        0.04256
C         -2.93999       -1.87015        0.02060
C         -3.24226       -0.51387       -0.03311
C          2.80733        0.35993       -0.01667
O          3.13715        1.54289       -0.02983
N          3.77991       -0.63030        0.01446
C          0.19368        2.23640       -0.14825
H         -1.15662        2.61245        1.50711
H         -1.29002        3.78575        0.18810
H         -3.29738        2.25756        0.38572
H         -2.55080        2.21327       -1.21905
H         -1.39810       -3.41934        0.08472
H         -3.75101       -2.60033        0.04703
H         -4.28040       -0.18467       -0.04688
H          3.55611       -1.61828        0.02787
H          4.75416       -0.37534        0.02862
H          0.32728        2.55947       -1.20722
H          1.04005        2.73548        0.38740
