31
248599.log	Energy: -499539.5010320
C         -5.41703       -1.49697        0.03265
N         -4.90146       -0.12346       -0.22825
C         -5.75455        0.90328        0.43568
C         -3.48942        0.05462       -0.08027
C         -2.59868       -1.04018       -0.13367
C         -1.22056       -0.84474       -0.14415
C         -0.69551        0.45622       -0.09370
C         -1.56946        1.56036       -0.03508
C         -2.94460        1.36012       -0.02687
N          0.71684        0.72723       -0.10481
C          1.73166       -0.23674       -0.08950
O          1.52002       -1.43583       -0.05406
C          3.11688        0.34615       -0.11885
C          4.17495       -0.43687        0.10289
C          5.54987        0.11308        0.06996
O          5.93636        1.24185       -0.12840
O          6.45393       -0.89247        0.31397
H         -6.50039       -1.52634       -0.16899
H         -5.24478       -1.85513        1.05933
H         -4.94491       -2.20352       -0.67280
H         -5.70551        0.88033        1.53520
H         -5.46151        1.91138        0.09361
H         -6.80304        0.75592        0.12781
H         -2.97508       -2.06116       -0.17669
H         -0.54985       -1.71166       -0.18603
H         -1.17980        2.57605        0.00338
H         -3.60564        2.22591        0.00701
H          0.96869        1.71655       -0.12732
H          3.22239        1.41366       -0.33655
H          4.09023       -1.51439        0.31352
H          7.39775       -0.57241        0.29323
