35
24898674.log	Energy: -500950.2988211
C          2.44578        2.60276       -1.36056
C          2.21858        1.53701       -0.32409
N          2.84806        0.34669       -0.61099
N          2.71884       -0.73318        0.29199
C          3.41833       -1.91002       -0.36981
C          3.41635       -0.43468        1.61617
C          1.26404       -1.11334        0.62704
C          0.40523       -1.35598       -0.61919
C         -1.02612       -0.94997       -0.38096
C         -1.30709        0.37461        0.01142
C         -2.62363        0.76803        0.21790
C         -3.68589       -0.16338        0.02401
C         -3.40195       -1.46846       -0.36682
C         -2.06660       -1.85987       -0.56582
O         -4.95501        0.31419        0.24399
O         -2.98283        2.03180        0.60417
O          1.51254        1.74023        0.68007
H          3.50967        2.70564       -1.61284
H          2.07768        3.57187       -0.99946
H          1.91942        2.36108       -2.29351
H          4.47476       -1.66015       -0.58025
H          3.37120       -2.80839        0.25766
H          2.96064       -2.12327       -1.35338
H          2.93413        0.44443        2.09809
H          3.38017       -1.28344        2.30807
H          4.46889       -0.15508        1.44255
H          1.25156       -1.99921        1.28961
H          0.83625       -0.25308        1.21818
H          0.79208       -0.76338       -1.48530
H          0.47419       -2.41473       -0.93489
H         -0.48370        1.08822        0.15869
H         -4.20337       -2.18610       -0.51851
H         -1.86086       -2.88382       -0.86827
H         -5.63306       -0.38897        0.08491
H         -2.17784        2.60380        0.74008
