27
25171959.log	Energy: -441064.9861652
C          4.11405       -0.00511        0.24474
C          3.57453       -1.31642        0.09359
C          2.22640       -1.50295       -0.08110
C          1.33602       -0.38267       -0.11520
C         -0.08264       -0.50770       -0.29617
C         -0.85918        0.65130       -0.33481
C         -2.35160        0.54661       -0.62043
H         -2.50846        0.56946       -1.72967
C         -2.94248       -0.75433        0.00195
H         -3.99779       -0.89211       -0.33139
C         -2.06596       -1.94502       -0.28295
C         -0.73819       -1.81489       -0.41429
O         -3.09215       -0.56598        1.41546
O         -3.11082        1.65224       -0.17387
N         -0.33432        1.91755       -0.16962
C          0.97759        2.03958        0.01283
C          1.87894        0.92043        0.03944
C          3.28608        1.08855        0.21883
H          5.18893        0.10788        0.37986
H          4.25613       -2.16730        0.11872
H          1.81328       -2.50526       -0.19813
H         -2.57185       -2.90606       -0.33718
H         -0.09177       -2.67430       -0.60553
H         -2.22177       -0.62371        1.86730
H         -3.07338        1.71814        0.81336
H          1.36655        3.05843        0.14610
H          3.68273        2.09757        0.33260
