30
25267133.log	Energy: -501768.1153157
C         -1.80444        3.09236       -0.44733
C         -2.39189        2.35673        0.58754
C         -2.12143        0.99352        0.72187
C         -1.25152        0.35974       -0.18141
C         -0.66579        1.09816       -1.22162
C         -0.94557        2.46096       -1.35166
C         -0.94436       -1.07644       -0.03175
C          0.29609       -1.60034        0.05449
C          1.56172       -0.86692        0.02691
C          2.53515       -1.25734       -0.91837
C          3.76667       -0.61721       -0.98743
C          4.07162        0.42652       -0.09552
C          3.14676        0.82990        0.85599
C          1.89361        0.18164        0.90739
O          1.08074        0.64204        1.90406
C         -2.08084       -2.03225       -0.00012
O         -2.06246       -3.20644        0.30445
O         -3.26696       -1.45588       -0.38079
H         -2.01758        4.15510       -0.54870
H         -3.06570        2.84743        1.28873
H         -2.60352        0.41803        1.51035
H          0.00578        0.60737       -1.92523
H         -0.48998        3.03206       -2.15953
H          0.41520       -2.69591        0.13350
H          2.30686       -2.07117       -1.60875
H          4.50115       -0.92334       -1.72927
H          5.04273        0.91997       -0.15467
H          3.35414        1.63251        1.56181
H          0.16462        0.25781        1.86807
H         -4.01892       -2.11181       -0.37195
