23
253692.log	Energy: -449803.8628389
C         -3.48298       -1.40239        0.33094
O         -2.80704       -0.40461       -0.48498
C         -1.49734       -0.12511       -0.13823
C         -1.17066        1.20256       -0.10304
C          0.24383        1.64597        0.18955
O          0.48657        2.79160        0.49893
C          1.27997        0.58969        0.07712
C          0.93266       -0.77727       -0.01161
C         -0.52380       -1.22452        0.07515
O         -0.83162       -2.36297        0.32622
N          1.85858       -1.75030       -0.16189
C          3.17088       -1.39137       -0.21244
C          3.59860       -0.05918       -0.10212
C          2.63617        0.94319        0.04362
N         -2.06868        2.20983       -0.43986
H         -4.49201       -1.38579       -0.09563
H         -3.47943       -1.10255        1.37998
H         -3.00953       -2.38376        0.19447
H          3.88382       -2.21716       -0.34251
H          4.65908        0.18678       -0.13217
H          2.92370        1.99648        0.12932
H         -1.87298        3.13738       -0.08295
H         -3.04917        1.95020       -0.45336
