22
253660.log	Energy: -364243.4638368
C          3.92868        0.40386        0.02363
C          2.50706       -0.04595        0.00519
N          1.53265        0.85849        0.00753
C          0.23042        0.39406       -0.00371
C         -0.88380        1.33350       -0.00751
N         -2.18002        0.91517       -0.02182
C         -2.43188       -0.45286       -0.00050
C         -1.42263       -1.42945       -0.01432
C         -0.08494       -1.00280       -0.01202
N          0.96494       -1.93607       -0.01883
C          2.20254       -1.47184       -0.00948
N         -3.77942       -0.79336        0.08639
N         -0.66511        2.69004       -0.01327
H          4.01405        1.49941       -0.06137
H          4.49972       -0.03078       -0.80856
H          4.42305        0.11539        0.96286
H         -1.64580       -2.49140       -0.00795
H          3.02214       -2.20184       -0.01397
H         -4.46994       -0.06838       -0.04953
H         -4.06399       -1.72493       -0.16452
H          0.27480        3.05631       -0.00793
H         -1.43802        3.33514       -0.01671
