17
254033.log	Energy: -325973.7663162
C         -1.17097       -1.71052       -0.00878
N         -2.48451       -1.39935       -0.00757
N         -2.59962       -0.02901       -0.00357
C         -1.34270        0.57038        0.00058
C         -0.38283       -0.50750       -0.00658
C          0.98608       -0.12478        0.00491
N          1.32320        1.20680       -0.00461
C          0.31375        2.14525        0.00485
N         -1.01805        1.90868        0.00558
N          2.00684       -1.06975        0.11492
N          3.37495       -0.73036       -0.07332
H         -0.81185       -2.72802       -0.00652
H         -3.50631        0.41926       -0.00015
H          0.64215        3.19964        0.00673
H          1.81841       -2.02524       -0.21321
H          3.49125        0.00973       -0.78320
H          3.72679       -0.32138        0.80639
