16
255072.log	Energy: -340783.2924349
C         -0.85868        1.77830       -0.02889
C         -1.99336        1.04198        0.01924
N         -1.93643       -0.37241        0.26347
C         -0.74149       -1.09833        0.02579
C          0.40930       -0.39333        0.00787
C          0.41801        1.09783       -0.00056
N          1.65900        1.57400       -0.00916
N          2.51409        0.48429       -0.02213
C          1.83901       -0.78647       -0.00641
O          2.40449       -1.85227       -0.00773
O         -3.06941       -1.03737       -0.25538
H         -0.86618        2.86689       -0.10165
H         -3.00243        1.45666       -0.04681
H         -0.82080       -2.18941       -0.04019
H          3.51279        0.65100       -0.00445
H         -3.59735       -1.30897        0.57047
