32
256840.log	Energy: -456081.3429359
C         -0.21467        3.12830       -0.69680
C         -0.09655        2.26781        0.56095
C         -0.47322        0.85567        0.27866
C          0.35098       -0.19944        0.06420
C         -0.46386       -1.45555       -0.19025
O         -0.06971       -2.56554       -0.42120
C         -1.89810       -0.99572       -0.09156
C         -3.07474       -1.69601       -0.22731
C         -4.29066       -0.98652       -0.07774
C         -4.28930        0.37519        0.19629
C         -3.07866        1.09496        0.33416
C         -1.89319        0.40439        0.19078
C          1.81342       -0.22173        0.05500
C          2.51179        0.02952       -1.13672
C          3.90862        0.00812       -1.14049
C          4.61281       -0.26398        0.03674
C          3.91595       -0.51779        1.22269
C          2.51925       -0.49748        1.23711
H          0.48830        2.79668       -1.47216
H          0.00754        4.17908       -0.47893
H         -1.22182        3.08248       -1.12842
H          0.94563        2.31575        0.94916
H         -0.73628        2.68030        1.36941
H         -3.07688       -2.76445       -0.44451
H         -5.23259       -1.52346       -0.18089
H         -5.23362        0.90871        0.30850
H         -3.09671        2.16110        0.54694
H          1.96340        0.23359       -2.05394
H          4.44987        0.19971       -2.06564
H          5.70044       -0.28377        0.02970
H          4.46339       -0.73593        2.13826
H          1.97772       -0.70393        2.15796
