26
257884.log	Energy: -427912.7907123
C          3.46748        0.30888       -0.01019
C          2.53623        1.35717       -0.00528
C          1.18538        1.05573       -0.00402
C          0.74372       -0.30305       -0.00167
C          1.63745       -1.34990       -0.00552
C          3.02911       -1.03041       -0.00528
N          3.96651       -2.07294        0.07121
C         -0.74301       -0.30306        0.00228
C         -1.18654        1.05507        0.00209
C         -0.00097        1.96958        0.00028
O         -0.00027        3.17576        0.00566
C         -2.53725        1.35623        0.00038
C         -3.46895        0.30862        0.00534
C         -3.02890       -1.03024        0.00401
C         -1.63691       -1.34985        0.00618
N         -3.96415       -2.07450       -0.06752
H          4.52899        0.53865       -0.00610
H          2.87152        2.39646       -0.00398
H          1.30418       -2.38170        0.00591
H          3.67080       -3.00029       -0.18739
H          4.92363       -1.87016       -0.17051
H         -2.87256        2.39544       -0.00102
H         -4.53049        0.53737       -0.00037
H         -1.30438       -2.38186       -0.00059
H         -3.66549       -3.00204        0.18670
H         -4.92160       -1.87442        0.17451
