26
258134.log	Energy: -528938.7780654
C         -4.88409        0.80657        0.01995
N         -4.20918       -0.50388        0.07031
C         -2.85155       -0.63646        0.01060
N         -2.38379       -1.97735       -0.01386
C         -1.06944       -2.16810       -0.03223
C         -0.13781       -1.07742       -0.03331
C         -0.68906        0.25593       -0.01481
N         -2.04210        0.48392        0.00331
N          0.19361        1.33259       -0.02036
C          1.62872        1.12978       -0.04653
O          2.35194        2.09739       -0.05892
C          2.03117       -0.30238       -0.05953
N          1.21801       -1.32740       -0.05167
C          3.50063       -0.58439       -0.10591
O          4.21014       -0.75388       -1.06266
O          3.99599       -0.63065        1.17157
C         -0.33057        2.72268        0.00498
H         -4.24351        1.60975        0.43866
H         -5.81400        0.76955        0.61247
H         -5.12789        1.09010       -1.02026
H         -4.79141       -1.34057        0.01843
H         -0.69587       -3.20593       -0.05148
H          4.97884       -0.80219        1.19301
H         -1.07403        2.87053       -0.79842
H         -0.81995        2.93166        0.97210
H          0.49945        3.44191       -0.13787
