31
259685.log	Energy: -489352.6870567
C         -3.55017        1.34921       -0.40962
C         -3.88493        0.00135        0.22852
C         -2.88359       -1.05971       -0.24835
C         -1.43761       -0.60644       -0.14218
C         -0.46019       -1.66064       -0.17545
C          0.85917       -1.30876       -0.11441
C          1.20854        0.08943       -0.02065
C          0.27996        1.12561        0.01097
C         -1.10934        0.73694       -0.05476
C         -2.15123        1.81857        0.00957
C          0.85003        2.43863        0.10720
C          2.21713        2.61345        0.15892
C          3.14379        1.51885        0.12098
C          2.62807        0.25616        0.03071
C          3.21454       -1.12459       -0.03418
O          4.35407       -1.51674       -0.02399
N          2.09027       -2.02618       -0.11929
O         -3.08988       -2.27501        0.48639
H         -3.60650        1.26989       -1.51371
H         -4.30399        2.10661       -0.12191
H         -3.86517        0.07806        1.33236
H         -4.91371       -0.31579       -0.02800
H         -3.10334       -1.38577       -1.29542
H         -0.80386       -2.69211       -0.24563
H         -2.18543        2.20940        1.05041
H         -1.85061        2.67649       -0.62724
H          0.18466        3.30103        0.13976
H          2.63167        3.62016        0.23146
H          4.21540        1.71049        0.16340
H          2.16289       -3.02879       -0.18173
H         -2.85255       -2.16080        1.42862
