29
262953.log	Energy: -486198.5241872
C          3.46017       -1.83658       -0.83533
C          4.43928       -1.06390       -0.19290
C          4.08548        0.08175        0.50499
C          2.72756        0.48734        0.57942
C          1.73453       -0.28690       -0.07333
C          2.12627       -1.45117       -0.76516
C          0.29390        0.02390       -0.04646
N         -0.55209       -0.91426        0.28870
C         -1.93762       -0.67217        0.22077
C         -2.82976       -1.70435        0.59893
C         -4.19645       -1.49722        0.51529
C         -4.70797       -0.26570        0.05389
C         -3.86035        0.76532       -0.31987
C         -2.46341        0.56905       -0.23185
N         -1.54725        1.58463       -0.57597
C         -0.14406        1.40119       -0.48386
O          0.56618        2.35660       -0.74250
N          2.40608        1.59508        1.39180
H          3.74419       -2.73291       -1.37949
H          5.48543       -1.36708       -0.24446
H          4.85022        0.66944        1.00653
H          1.36077       -2.05968       -1.25250
H         -2.41581       -2.65245        0.95198
H         -4.88853       -2.28715        0.80514
H         -5.78896       -0.12858       -0.00665
H         -4.26044        1.71286       -0.67374
H         -1.89791        2.49055       -0.89701
H          1.58938        2.13520        1.12665
H          3.17957        2.20549        1.62467
