32
265171.log	Energy: -476767.3828687
C          5.16791       -0.67490       -0.67946
C          4.33961       -1.62640       -0.07374
C          3.07178       -1.26413        0.38369
C          2.61407        0.05665        0.22178
C          3.45030        1.00887       -0.38398
C          4.72309        0.64180       -0.82922
C          1.26986        0.40785        0.69991
C          0.45650        1.28713        0.08587
C         -0.86832        1.60703        0.59056
C         -1.61099        0.87333        1.46653
C         -1.84971       -0.52964        1.14880
O         -1.42236       -1.56085        1.59884
C         -2.84275       -0.50149       -0.04482
C         -3.19660        0.59697       -0.76972
C         -2.79719        2.01141       -0.72022
C         -1.71668        2.57413       -0.13001
N         -3.43536       -1.77516       -0.25222
N         -3.84519       -2.18022       -1.55639
H          6.15793       -0.95952       -1.03116
H          4.68581       -2.65233        0.04468
H          2.43121       -2.00721        0.85869
H          3.11225        2.03742       -0.49822
H          5.36899        1.38511       -1.29405
H          0.94519       -0.11774        1.60940
H          0.76411        1.81663       -0.81956
H         -2.41445        1.33720        2.04787
H         -3.93863        0.44407       -1.56671
H         -3.47022        2.65716       -1.29964
H         -1.45477        3.62037       -0.19794
H         -2.90983       -2.56265        0.18218
H         -4.84459       -1.96169       -1.65818
H         -3.35565       -1.67397       -2.30361
