22
265909.log	Energy: -480548.3384245
C         -3.74139        2.01718        0.00415
N         -2.84292        0.85658       -0.01035
C         -3.18214       -0.52319        0.01562
N         -2.02913       -1.25221        0.02677
C         -1.00420       -0.28755        0.00844
N         -1.49520        0.99685        0.00522
C          0.38959       -0.66311        0.00050
C          1.02957       -1.89206       -0.00079
C          2.43128       -1.62829       -0.00577
C          2.56420       -0.25303       -0.00205
O          1.31311        0.38725       -0.00078
N          3.71224        0.63925       -0.00183
O          4.80871        0.10151        0.03511
O          3.50796        1.83643       -0.03787
N         -4.51592       -0.98199       -0.09174
H         -4.18142        2.16559        1.00681
H         -4.55675        1.86942       -0.73127
H         -3.19050        2.94165       -0.26662
H          0.55563       -2.86017       -0.00314
H          3.22778       -2.35650       -0.01111
H         -4.55821       -1.97409       -0.33779
H         -5.05968       -0.81645        0.75433
