24
267815.log	Energy: -458087.9641121
C         -2.65096       -2.23799       -0.15546
N         -1.32102       -1.60534        0.03951
C         -0.36564       -2.41718        0.82621
C         -1.21666       -0.23306       -0.01318
N         -2.41141        0.46093       -0.16002
C         -2.41717        1.82379       -0.16320
N         -1.33822        2.63402        0.00637
C         -0.15486        1.94719        0.08119
C          0.01000        0.51820        0.01990
C          1.43462        0.30606       -0.00690
C          2.07677        1.54338        0.12195
N          1.11359        2.54847        0.17789
N          2.19905       -0.90329       -0.24642
O          1.68725       -1.82516       -0.85937
O          3.35274       -0.91333        0.16863
H         -3.30070       -2.12804        0.72950
H         -2.52107       -3.30619       -0.39084
H         -3.17762       -1.76408       -1.00764
H          0.30941       -1.79851        1.43818
H         -0.89184       -3.10188        1.51309
H          0.25201       -3.02905        0.13301
H         -3.40066        2.31002       -0.28222
H          3.14192        1.73824        0.16518
H          1.27808        3.54148        0.24319
