17
270702.log	Energy: -258374.2231486
C          0.90983        1.97561       -0.16659
C         -0.09246        0.87775       -0.06254
N         -1.38985        1.23707        0.09093
C         -2.33455        0.26236        0.14846
C         -1.98683       -1.09971        0.05693
N         -0.69358       -1.48627       -0.07149
C          0.26085       -0.51192       -0.14364
N          1.59397       -0.96239       -0.43769
N          2.63428       -0.57686        0.46634
H          1.48409        2.09672        0.76093
H          0.42084        2.94847       -0.35652
H          1.60741        1.80239       -1.00059
H         -3.37221        0.59135        0.26248
H         -2.73611       -1.89816        0.09578
H          1.63638       -2.00082       -0.52944
H          3.12213        0.22857        0.05524
H          2.28263       -0.27389        1.37988
