31
2727948.log	Energy: -522646.6410484
C         -2.17769        0.04830       -1.12100
C         -3.64277        0.25244       -0.70763
O         -4.17227       -0.95368       -0.11862
C         -3.43020       -1.36611        1.04497
C         -1.95943       -1.63082        0.67390
N         -1.40582       -0.36113        0.10106
C          0.02123       -0.34801       -0.08174
C          0.70594        0.88263        0.02591
C          2.10675        0.94520       -0.03617
C          2.84543       -0.22079       -0.22681
C          2.17742       -1.45413       -0.33783
C          0.79193       -1.51841       -0.26337
C          4.34792       -0.17649       -0.32670
O          4.94119       -1.33706        0.26914
N         -0.00959        2.16294        0.26146
O          0.20046        2.72820        1.31720
O         -0.72233        2.58803       -0.63204
H         -1.75942        1.00167       -1.52424
H         -2.10881       -0.71265       -1.92787
H         -3.75508        1.08687        0.00825
H         -4.30366        0.40300       -1.57978
H         -3.95351       -2.28928        1.35010
H         -3.52200       -0.59283        1.82880
H         -1.90110       -2.48626       -0.03379
H         -1.38024       -1.89939        1.58340
H          2.60855        1.91072        0.07248
H          2.76970       -2.36407       -0.48347
H          0.29550       -2.48408       -0.36145
H          4.68451       -0.24671       -1.38340
H          4.78104        0.73043        0.13445
H          4.75688       -1.35685        1.23229
