24
2727891.log	Energy: -414131.9168362
C          4.32115        0.32085       -0.00905
C          2.85480        0.04383       -0.00245
C          2.33799       -1.22192        0.02162
C          0.90376       -1.45049        0.01868
O          0.35522       -2.55266        0.06505
C          0.08715       -0.22713       -0.03011
C         -1.28571       -0.26402       -0.05928
C         -2.13196        0.93829       -0.00203
C         -3.43545        0.49934        0.04152
N         -3.45578       -0.92375        0.12255
N         -2.13229       -1.37349       -0.17492
C         -1.46706        2.22133        0.02303
C         -0.11664        2.27833        0.00355
C          0.73502        1.06926       -0.01728
N          2.05566        1.20969       -0.00928
H          4.65164        0.67708        0.97987
H          4.57425        1.12105       -0.72362
H          4.91613       -0.56406       -0.26560
H          2.96771       -2.10633        0.04288
H         -4.35646        1.06391        0.08942
H         -4.18758       -1.44270       -0.37745
H         -1.83264       -2.30871        0.17056
H         -2.08754        3.11627        0.05248
H          0.42114        3.23140        0.01338
