20
2728544.log	Energy: -399319.4505476
C         -0.77625        0.97774        1.17603
C         -1.43411       -0.17806        1.22736
C         -1.81991       -0.96656        0.03830
O         -1.14924       -1.34257       -0.90093
O         -3.13715       -1.32909        0.12038
C         -0.39404        1.70220       -0.07958
O         -1.14298        2.46874       -0.66029
N          0.87000        1.43079       -0.62647
N          1.86658        0.84371        0.15552
C          2.12751       -0.45601       -0.02993
N          1.67982       -1.30460       -1.06521
N          3.01733       -1.05354        0.91160
H         -0.48831        1.52123        2.08650
H         -1.75352       -0.62374        2.17818
H         -3.44357       -1.85082       -0.67436
H          1.22693        2.06536       -1.35456
H          1.66674       -2.30078       -0.87312
H          0.80857       -1.01565       -1.52737
H          3.44640       -0.39025        1.55744
H          3.71649       -1.67243        0.51290
