28
2731294.log	Energy: -511269.9244871
C         -2.76194        3.09920       -0.19257
C         -1.79673        1.95166       -0.16258
O         -0.59768        2.18098       -0.27278
C         -2.31464        0.57286       -0.00516
C         -3.69637        0.35978        0.18936
C         -4.22597       -0.91327        0.33832
C         -3.37173       -2.02882        0.29333
C         -2.00887       -1.86195        0.10817
C         -1.46097       -0.56588       -0.03888
N         -0.06429       -0.38276       -0.22118
C          0.91344       -1.39736       -0.27797
O          0.68187       -2.58317       -0.17137
C          2.29620       -0.86544       -0.51789
C          2.96242       -0.13572        0.37617
C          4.34817        0.31238        0.10312
O          5.02899        0.19466       -0.88803
O          4.84573        0.95399        1.21338
H         -2.22708        4.05005       -0.35721
H         -3.30982        3.20380        0.75376
H         -3.49803        3.00275       -1.00182
H         -4.37234        1.21677        0.22632
H         -5.29428       -1.05343        0.48768
H         -3.78613       -3.03303        0.40559
H         -1.35145       -2.74093        0.07677
H          0.25752        0.61803       -0.31945
H          2.72810       -1.17196       -1.48194
H          2.55509        0.17268        1.34657
H          5.77908        1.27830        1.08188
