29
2733583.log	Energy: -451930.6682550
C          5.94698       -0.05051        0.56522
C          4.49251       -0.50197        0.66523
C          3.71969       -0.20865       -0.62632
C          2.24997       -0.60814       -0.53501
O          1.57194        0.68477       -0.40391
C          0.20486        0.67652       -0.23543
C         -0.61216       -0.42787       -0.17747
C         -2.01629       -0.25380        0.00494
C         -2.56567        1.04629        0.12282
C         -1.67246        2.17736        0.05423
C         -0.32766        2.00243       -0.11898
N         -3.90871        1.27725        0.30301
N         -2.82198       -1.45906        0.06082
O         -2.26821       -2.54378       -0.02815
O         -4.04305       -1.34041        0.19699
H          6.47026       -0.54369       -0.26194
H          6.49657       -0.28344        1.48477
H          6.02492        1.03118        0.40429
H          4.45251       -1.58500        0.89422
H          4.00022        0.00980        1.51729
H          3.77766        0.87977       -0.85972
H          4.19806       -0.71880       -1.48427
H          1.87982       -1.09460       -1.45293
H          2.01121       -1.22377        0.34800
H         -0.23152       -1.44877       -0.26517
H         -2.08975        3.17977        0.14499
H          0.36717        2.84374       -0.17330
H         -4.57320        0.50235        0.35064
H         -4.27311        2.20947        0.37150
