29
2733453.log	Energy: -451921.4653304
C          5.64087        0.00861       -0.07752
C          4.38376       -0.82011       -0.32812
C          3.15263       -0.17132        0.31379
C          1.90368       -1.02929        0.13426
O          0.85032       -0.00287        0.08829
C         -0.44957       -0.39065        0.04927
C         -1.38657        0.66614       -0.00106
C         -2.76449        0.38155       -0.04230
C         -3.20781       -0.94349       -0.03003
C         -2.25958       -2.00016        0.02264
C         -0.90327       -1.73036        0.06280
N         -4.59216       -1.24864       -0.18908
N         -0.95699        2.07154       -0.01399
O          0.23550        2.31517       -0.05709
O         -1.83574        2.92381        0.02254
H          5.53909        1.02673       -0.47364
H          6.51598       -0.44285       -0.55877
H          5.86384        0.09732        0.99212
H          4.22592       -0.93470       -1.41958
H          4.52727       -1.84320        0.07190
H          3.33073        0.03156        1.38751
H          2.96244        0.83339       -0.13477
H          1.87983       -1.57853       -0.82119
H          1.71479       -1.70355        0.98359
H         -3.46935        1.21984       -0.09235
H         -2.60731       -3.03495        0.02201
H         -0.19071       -2.55106        0.09954
H         -4.88765       -2.10521        0.26235
H         -5.21934       -0.48962        0.05053
