27
2734021.log	Energy: -290427.7100960
C          1.42867        2.57017       -0.14765
C          0.92477        1.17263       -0.08109
C          1.55441        0.15634        0.53919
C          0.90331       -1.21491        0.57961
H          0.72936       -1.55784        1.62489
C         -0.40914       -1.21163       -0.24548
C         -0.14584       -0.45530       -1.58161
C         -0.38965        0.85899       -0.77004
C         -1.30887        0.00609        0.19933
C         -1.34122        0.38215        1.67068
C         -2.74469       -0.11151       -0.31307
O          1.79852       -2.21956        0.08563
H          1.57255        2.89360       -1.18869
H          2.39066        2.69890        0.36704
H          0.71666        3.26921        0.31442
H          2.51463        0.23728        1.02926
H         -0.87724       -2.19573       -0.30249
H         -0.88816       -0.64812       -2.36221
H          0.84413       -0.57243       -2.02683
H         -0.85645        1.69864       -1.28598
H         -1.95595        1.27488        1.83745
H         -1.76713       -0.42913        2.27301
H         -0.35274        0.60681        2.08782
H         -2.79525       -0.39337       -1.37032
H         -3.30122       -0.87105        0.24820
H         -3.28171        0.83749       -0.20624
H          2.08914       -2.01076       -0.82368
