29
2737009.log	Energy: -521917.7984450
C         -2.10596        0.07965       -1.12518
C         -3.54864        0.35034       -0.67340
O         -4.13043       -0.84876       -0.12124
C         -3.39119       -1.34843        1.00833
C         -1.93812       -1.66530        0.60723
N         -1.33617       -0.40282        0.06921
C          0.08482       -0.38815       -0.05811
C          0.78396        0.84306        0.03791
C          2.18666        0.87711        0.05131
C          2.91864       -0.30422       -0.05678
C          2.23714       -1.53413       -0.15234
C          0.85103       -1.57591       -0.14858
C          4.40682       -0.28592       -0.06218
O          5.06512       -1.29920       -0.15202
N          0.09833        2.14538        0.21369
O          0.35264        2.76586        1.22820
O         -0.63184        2.53840       -0.68024
H         -1.64833        1.01313       -1.53119
H         -2.09485       -0.67371       -1.94335
H         -3.60187        1.16132        0.07503
H         -4.21643        0.57049       -1.52564
H         -3.95238       -2.26067        1.27900
H         -3.43735       -0.60993        1.82888
H         -1.92476       -2.49444       -0.13359
H         -1.36448       -1.99496        1.50046
H          2.69937        1.83996        0.15507
H          2.82656       -2.45628       -0.23490
H          0.34830       -2.53927       -0.23647
H          4.87623        0.70752        0.01959
