23
2737100.log	Energy: -437110.9416643
C          4.08171        0.70584       -0.00706
C          4.20090       -0.68470        0.00650
C          3.06563       -1.51584        0.01459
C          1.82277       -0.90314        0.01091
C          1.69300        0.53475       -0.00441
C          2.82154        1.33430       -0.01269
C          0.25541        0.81621       -0.00556
C         -0.47076        1.95236       -0.00974
C         -1.92679        1.90582        0.00730
C         -2.53932        0.70305        0.01672
C         -1.80581       -0.61608       -0.00322
N         -2.68202       -1.59998       -0.02744
O         -3.94107       -1.11213       -0.02040
N         -3.92500        0.35102       -0.07576
C         -0.36028       -0.56738        0.00482
N          0.52631       -1.54226        0.01693
H          4.98003        1.32247       -0.01336
H          5.19062       -1.14154        0.00936
H          3.15654       -2.60111        0.02317
H          2.74596        2.41864       -0.02436
H         -0.00085        2.93712       -0.02214
H         -2.47422        2.84525       -0.00296
H         -4.53248        0.66363        0.68862
