22
2749831.log	Energy: -449202.7006113
C         -1.89344       -1.82521       -0.19068
C         -0.54269       -1.76670       -0.50204
C          0.15938       -0.54431       -0.51598
C         -0.55255        0.62442       -0.20336
C         -1.91247        0.59201        0.12612
C         -2.59723       -0.63781        0.12823
N         -3.98741       -0.67500        0.35498
N          0.08962        1.97048       -0.19280
O          1.02988        2.16661       -0.94817
O         -0.38556        2.80904        0.55102
C          1.62058       -0.55714       -0.84413
C          2.46424       -0.64716        0.39364
O          2.28203       -0.22945        1.50948
O          3.62248       -1.33363        0.09550
H         -2.41316       -2.78274       -0.19724
H         -0.00806       -2.68999       -0.73876
H         -2.42984        1.52107        0.38268
H         -4.39293        0.11796        0.83278
H         -4.37604       -1.55443        0.66312
H          1.87559       -1.38403       -1.54771
H          1.91840        0.36956       -1.41217
H          4.24502       -1.39488        0.86864
