25
2750509.log	Energy: -450475.8219474
C         -5.17873       -0.69684       -0.08083
C         -3.98663        0.16238        0.20334
O         -4.01080        1.23579        0.76707
N         -2.75205       -0.37626       -0.25699
C         -1.52764        0.30260       -0.04655
C         -0.35842       -0.20184       -0.48990
C          0.92751        0.45395       -0.28294
C          1.02156        1.86183       -0.35790
C          2.23213        2.51477       -0.15693
C          3.39583        1.78267        0.12808
C          3.33353        0.39847        0.20478
C          2.10897       -0.27153       -0.00658
N          2.14351       -1.74196        0.09311
O          1.22063       -2.39778       -0.36645
O          3.12362       -2.24014        0.62954
H         -6.09349       -0.21365        0.30633
H         -5.11425       -1.68310        0.40127
H         -5.33713       -0.85903       -1.15649
H         -2.72376       -1.27981       -0.72909
H         -1.61809        1.25030        0.50854
H         -0.31150       -1.16377       -1.02005
H          0.12777        2.44212       -0.59039
H          2.28160        3.60373       -0.22143
H          4.34131        2.29941        0.28815
H          4.23109       -0.19026        0.43166
