25
2750510.log	Energy: -473700.0133420
C          2.17053       -1.97208       -0.07715
C          0.83597       -1.77070       -0.39329
C          0.27536       -0.47601       -0.45770
C          1.11834        0.60974       -0.17947
C          2.46878        0.43543        0.15530
C          3.00613       -0.86265        0.20742
N          4.33474       -1.06659        0.63343
N          0.63316        2.01722       -0.21291
O         -0.29421        2.30120       -0.95357
O          1.20785        2.81897        0.50616
C         -1.17807       -0.33566       -0.80419
C         -2.02851       -0.09720        0.44986
C         -3.44011       -0.55514        0.23801
O         -3.90464       -1.32950       -0.56468
O         -4.26214        0.03934        1.16967
H          2.57356       -2.98351       -0.03220
H          0.19735       -2.63343       -0.60114
H          3.08376        1.30780        0.39409
H          4.96085       -0.27620        0.57177
H          4.77377       -1.93337        0.35982
H         -1.33074        0.50021       -1.52937
H         -1.54263       -1.23995       -1.34436
H         -1.60793       -0.63266        1.33119
H         -2.01594        0.98103        0.73414
H         -5.21279       -0.23878        1.07905
