30
275106.log	Energy: -488740.5664969
C          2.72285       -2.36934       -0.40520
N          2.22777       -1.24381        0.43615
C          3.34478       -0.39087        0.92547
C          1.08266       -0.56687       -0.03241
C          0.94864        0.78516       -0.21464
C         -0.36476        1.48055       -0.31550
O         -0.47521        2.66665       -0.55195
C         -1.57309        0.62745       -0.07652
C         -2.82099        1.23438        0.08805
C         -3.95577        0.44591        0.32263
C         -3.84300       -0.94339        0.38640
C         -2.59508       -1.55614        0.20729
C         -1.46104       -0.77157       -0.02002
C         -0.13923       -1.44012       -0.23752
O         -0.08062       -2.60306       -0.57060
O          2.10931        1.51269       -0.37530
C          2.15584        2.83320        0.23526
H          3.52780       -2.89913        0.12798
H          3.10180       -2.04581       -1.38658
H          1.90902       -3.10416       -0.57454
H          3.85068        0.17837        0.12502
H          2.95981        0.33888        1.65805
H          4.08348       -1.02483        1.44038
H         -2.90148        2.32385        0.02647
H         -4.92757        0.92324        0.45223
H         -4.72481       -1.55765        0.57024
H         -2.50026       -2.64528        0.23897
H          1.50054        3.51724       -0.32078
H          1.87760        2.78340        1.28849
H          3.21028        3.09830        0.10407
