21
2751986.log	Energy: -358075.4945074
C          0.15625       -0.11201        0.57469
C         -0.90772       -1.03559        0.19149
C         -0.21818       -2.18630       -0.09691
C          1.30010       -2.12780       -0.16390
C          2.21804       -1.10382       -0.16928
C          2.23196        0.45967        0.02610
O          3.26842        1.06034       -0.00028
C          0.82186        1.12379        0.20766
C          0.11085        2.18812       -0.17919
C         -1.36292        2.12912       -0.12068
C         -2.25805        1.11851       -0.06032
C         -2.23444       -0.38158        0.01733
O         -3.26788       -1.01091       -0.05984
H          0.64051       -0.51262        1.50414
H          0.47318       -0.32613       -0.65947
H         -0.67992       -3.13871       -0.32166
H          1.71583       -3.13939       -0.28416
H          3.26485       -1.39578       -0.33364
H          0.55454        3.11153       -0.54695
H         -1.79840        3.14436       -0.17001
H         -3.32134        1.42861       -0.06922
