32
2752781.log	Energy: -476875.9154707
C          5.12388        0.50413        0.07366
N          4.01858       -0.45916       -0.13480
C          4.35802       -1.88726        0.06487
C          2.69420       -0.04987       -0.03509
C          1.64288       -0.95489       -0.01897
C          0.27429       -0.54225       -0.01716
C         -0.79421       -1.41816       -0.01614
C         -2.14405       -0.97061       -0.00655
C         -3.24149       -1.88573       -0.01040
C         -4.53657       -1.41892        0.00491
C         -4.81084       -0.02673        0.02344
C         -3.76993        0.87535        0.02568
C         -2.42415        0.41790        0.01025
C         -1.36035        1.40108        0.00724
O         -1.45626        2.61432        0.01354
N          0.01027        0.86399       -0.00922
C          1.08372        1.77794       -0.02128
C          2.37891        1.37006       -0.03168
H          6.09926       -0.01056        0.06802
H          5.03772        1.05096        1.02775
H          5.13806        1.23487       -0.75622
H          3.85881       -2.32066        0.95010
H          4.04734       -2.46399       -0.82717
H          5.44304       -2.02713        0.18965
H          1.80990       -2.02806       -0.01956
H         -0.59896       -2.48603       -0.02604
H         -3.03030       -2.95198       -0.02493
H         -5.37489       -2.11674        0.00069
H         -5.84280        0.31299        0.03224
H         -3.95218        1.95333        0.03793
H          0.79283        2.84268       -0.01968
H          3.17438        2.10970       -0.04964
