25
2753353.log	Energy: -476154.2512838
C         -4.29619       -0.58740        0.34859
O         -3.47100        0.57237        0.63295
C         -2.17695        0.56657        0.17640
C         -1.51648       -0.46099       -0.54717
C         -0.18938       -0.30795       -0.94762
C          0.50347        0.87036       -0.62184
C         -0.13955        1.88360        0.09777
C         -1.47128        1.73698        0.49261
C          1.93104        1.03594       -1.05411
C          2.93073        0.35034       -0.16101
O          4.05320        0.72563        0.03198
C          2.43285       -0.98069        0.45642
O          2.28882       -2.04047       -0.10020
O          2.15379       -0.80486        1.77570
O         -2.23529       -1.60420       -0.83210
H         -5.24816       -0.30187        0.81037
H         -3.86659       -1.47786        0.81902
H         -4.39371       -0.72434       -0.73323
H          0.31017       -1.10473       -1.49875
H          0.39411        2.79675        0.36060
H         -1.98023        2.52240        1.05300
H          2.06971        0.64879       -2.09389
H          2.19975        2.11680       -1.13163
H          1.82473       -1.63701        2.22065
H         -1.67545       -2.26707       -1.31311
