34
2755877.log	Energy: -513425.6820807
C          5.01288       -1.99170        0.21264
C          4.19815       -1.08922       -0.69173
O          2.84944       -1.15783       -0.13178
C          1.90666       -0.27823       -0.72982
C          0.55771       -0.76970       -0.15983
N         -0.47759        0.24024       -0.46102
C         -1.79937        0.03130       -0.15450
C         -2.34991       -1.14248        0.26108
C         -3.78582       -1.32961        0.40968
O         -4.30505       -2.35863        0.79139
C         -4.66202       -0.15030        0.04655
C         -4.15146        1.02616       -0.31893
C         -2.68897        1.25883       -0.38773
O         -2.19382        2.34464       -0.59389
O          2.19808        1.06946       -0.39258
C          2.41445        1.37407        1.01903
C          3.02152        2.76293        1.00073
H          4.96494       -1.65838        1.25783
H          6.06591       -2.01347       -0.08921
H          4.63288       -3.02210        0.19611
H          4.53179       -0.03659       -0.66737
H          4.15348       -1.45315       -1.73229
H          1.96323       -0.26222       -1.83748
H          0.28834       -1.75050       -0.62415
H          0.64632       -0.96314        0.93538
H         -0.13894        1.20557       -0.59716
H         -1.74928       -2.01730        0.49656
H         -5.73633       -0.34203        0.11011
H         -4.76546        1.89301       -0.58115
H          1.43364        1.34335        1.52246
H          3.08594        0.60926        1.44706
H          2.45658        3.43053        0.33296
H          3.02457        3.21189        2.00045
H          4.05342        2.75014        0.62870
