18
2759230.log	Energy: -297560.2025605
C         -3.15509       -0.04636       -0.01987
C         -2.45676        0.94139       -0.72203
C         -1.05940        0.94887       -0.72038
C         -0.35758       -0.04251       -0.01684
C         -1.05816       -1.03300        0.68960
C         -2.45519       -1.03085        0.68488
C          1.12269       -0.04723       -0.02118
C          1.81132       -1.12892       -0.46018
O          3.15837       -1.25366       -0.50848
C          1.76680        1.12986        0.45577
N          2.29166        2.08428        0.84749
H         -4.24380       -0.04753       -0.02043
H         -3.00199        1.70993       -1.26878
H         -0.51552        1.72180       -1.26223
H         -0.51653       -1.79161        1.25111
H         -2.99958       -1.79719        1.23529
H          1.36713       -2.05305       -0.84081
H          3.64996       -0.45058       -0.17730
