22
2762522.log	Energy: -506111.1205017
C         -1.11359        1.63964        0.04218
C          0.13714        2.29025        0.11670
C          1.31525        1.51235        0.05190
C          1.22057        0.12888       -0.09903
C         -0.00880       -0.55325       -0.16597
C         -1.16285        0.24991       -0.08333
N         -2.53193       -0.34529       -0.12542
O         -3.41903        0.33949       -0.59862
O         -2.68596       -1.46877        0.32909
C         -0.09277       -2.06272       -0.27006
O         -0.27299       -2.61143        1.03184
N          2.52928       -0.59820       -0.17931
O          3.41310       -0.20823        0.55945
O          2.62979       -1.49446       -0.99605
N          0.21157        3.68890        0.15860
H         -2.04388        2.21903        0.06575
H          2.29913        1.98927        0.12372
H         -0.90708       -2.38583       -0.94794
H          0.85338       -2.53467       -0.62075
H         -1.21592       -2.49278        1.32325
H          1.07524        4.10643        0.47405
H         -0.61223        4.19757        0.44475
