22
2764124.log	Energy: -434190.2240924
C          3.91817       -0.54079        0.35020
C          3.26134       -1.44734       -0.44660
O          1.94334       -1.05795       -0.66024
C          1.79043        0.15181        0.04053
C          2.97273        0.49372        0.66375
C          0.48790        0.79675       -0.02220
C          0.36235        2.18199       -0.09409
C         -0.91771        2.79939       -0.13590
N         -2.07770        2.13298       -0.11239
C         -2.02028        0.76596       -0.03921
N         -2.97071       -0.19472        0.00702
C         -2.25853       -1.41933        0.10204
N         -0.87776       -1.27697        0.08887
N         -0.69672        0.08035        0.00865
N         -2.90835       -2.63050        0.28840
H          4.93601       -0.57686        0.69004
H          3.50966       -2.36561       -0.93460
H          3.16800        1.35402        1.27662
H          1.25702        2.80330       -0.12953
H         -0.99414        3.89673       -0.19337
H         -2.39016       -3.46661        0.05115
H         -3.89280       -2.65230        0.04655
