24
2767334.log	Energy: -445531.9228612
C         -2.50662        0.74515       -0.81818
C         -3.77978        0.15382       -0.82392
N         -4.11060       -0.88991       -0.01944
C         -3.15711       -1.38499        0.80929
C         -1.85410       -0.86086        0.87245
C         -1.53330        0.22435        0.04792
C         -0.18801        0.84234        0.09075
C          0.01130        2.21060        0.23070
C          1.32391        2.75999        0.25866
N          2.44548        2.03837        0.15632
C          2.31472        0.68081        0.02068
N          3.20942       -0.32505       -0.10955
C          2.42962       -1.50846       -0.19972
N          1.05864       -1.29049       -0.15470
N          0.95667        0.07117       -0.01024
N          3.01257       -2.76568       -0.22793
H         -2.28209        1.57814       -1.48098
H         -4.57298        0.51894       -1.48834
H         -3.45625       -2.23314        1.43827
H         -1.10762       -1.30601        1.53233
H         -0.84788        2.87392        0.33132
H          1.45968        3.84754        0.36950
H          2.44621       -3.52434       -0.58539
H          3.99173       -2.80049       -0.48966
