24
2767335.log	Energy: -445534.5570286
C          3.10515       -1.56648        0.62223
C          4.09256       -0.86349       -0.06692
C          3.75004        0.36101       -0.67326
N          2.50279        0.88084       -0.61556
C          1.54183        0.17678        0.05636
C          1.80574       -1.04824        0.69016
C          0.20428        0.82364        0.08655
C          0.03235        2.19680        0.20322
C         -1.26705        2.77592        0.22504
N         -2.40392        2.07656        0.13500
C         -2.30031        0.71583        0.01564
N         -3.22141       -0.27097       -0.10640
C         -2.47213       -1.47069       -0.17713
N         -1.09602       -1.28615       -0.12803
N         -0.96010        0.07425       -0.00231
N         -3.08285       -2.71823       -0.19551
H          3.33653       -2.51734        1.10446
H          5.10845       -1.24651       -0.13830
H          4.49179        0.95196       -1.22513
H          1.01511       -1.59387        1.21134
H          0.91406        2.84198        0.25641
H         -1.37849        3.86748        0.32038
H         -2.54433       -3.47955       -0.58878
H         -4.06726       -2.72475       -0.44198
