24
2771611.log	Energy: -460498.0380260
C          1.32988       -2.11064       -0.39662
C          2.74642       -1.54388       -0.17938
N          2.87496       -0.15880       -0.70318
C          2.20826        0.76554        0.20958
O          2.81146        1.27324        1.11648
C          0.74825        0.98377       -0.04405
C         -0.16984       -0.10573        0.07063
N          0.25093       -1.40619        0.34871
C         -1.56493        0.21731        0.01404
C         -1.98441        1.55807       -0.17338
C         -1.06608        2.58124       -0.31092
C          0.30590        2.28773       -0.22393
N         -2.62693       -0.77602        0.11027
O         -2.32443       -1.94366        0.36194
O         -3.77654       -0.41205       -0.07247
H          1.09345       -2.13378       -1.48668
H          1.31370       -3.17351       -0.05072
H          3.02763       -1.56236        0.90039
H          3.49259       -2.18432       -0.70377
H          2.50322       -0.10680       -1.66243
H         -0.50508       -2.07112        0.62781
H         -3.06363        1.76678       -0.21216
H         -1.39532        3.60842       -0.46294
H          1.03606        3.10308       -0.28354
