17
2772961.log	Energy: -624011.1989832
C         -1.00592        1.64559       -0.00277
C          0.29543        2.01911       -0.00545
C          1.32358        1.00949       -0.00201
N          2.64019        1.17402       -0.00071
S          3.37866       -0.36029        0.00339
N          1.95312       -1.27260        0.00245
C          0.92526       -0.43071       -0.00056
C         -0.49878       -0.79368       -0.00173
C         -1.43319        0.26128       -0.00063
N         -2.85624        0.02251        0.00217
O         -3.24481       -1.15231       -0.00092
O         -3.61862        0.97362        0.00787
N         -0.83019       -2.10930       -0.00547
H         -1.80822        2.39867       -0.00250
H          0.60930        3.06343       -0.00794
H         -0.12142       -2.83262       -0.00189
H         -1.81722       -2.40427       -0.00759
