25
277439.log	Energy: -445708.7593757
C          1.69139        2.54576        0.20609
N          0.51539        1.66758        0.12397
C          0.51815        0.28366        0.12476
C         -0.83707       -0.10643        0.01221
C         -1.59825       -1.31769       -0.08186
N         -2.95081       -1.26642       -0.17637
C         -3.57253       -0.02010       -0.16528
N         -2.97970        1.17776       -0.10737
C         -1.59633        1.14283       -0.02364
N         -0.71986        2.21247        0.04490
N         -0.99796       -2.57454       -0.00463
C          1.70326       -0.57936        0.27853
N          1.91616       -1.58683        1.04715
O          2.67898       -0.14661       -0.59682
C          3.94396       -0.87119       -0.59899
H          2.59452        2.02406       -0.17252
H          1.86810        2.86469        1.25148
H          1.53584        3.46279       -0.39887
H         -4.67440       -0.05237       -0.22843
H         -0.05692       -2.67559       -0.35840
H         -1.59574       -3.37793       -0.17894
H          1.20644       -1.89436        1.70934
H          4.41240       -0.80690        0.38818
H          3.77327       -1.91673       -0.87537
H          4.50673       -0.32974       -1.36643
