29
2776934.log	Energy: -517079.7987829
C         -2.66333        2.17383       -0.02502
N         -1.28617        1.65690       -0.03129
C         -0.81298        0.36550       -0.02425
C         -1.42917       -0.91925       -0.00122
C         -0.58984       -2.04622       -0.04354
C          0.79850       -1.94755       -0.06449
C          1.43721       -0.69020       -0.06206
C          0.64683        0.46358       -0.06794
C          0.91499        1.89564       -0.13632
N         -0.26467        2.58938       -0.08982
N          2.12680        2.53468       -0.36229
N          2.88702       -0.56932       -0.12236
C          3.60701       -1.81120       -0.54994
N          3.38718        0.00289        1.08886
N         -2.85975       -1.15467        0.07158
O         -3.61453       -0.21008        0.26357
O         -3.24903       -2.30972       -0.05541
H         -3.23602        1.77378       -0.88338
H         -2.66182        3.27900       -0.08576
H         -3.18804        1.87137        0.90376
H         -1.05693       -3.04301       -0.04343
H          1.37748       -2.86765       -0.06942
H          2.15602        3.52451       -0.14897
H          2.95878        2.02939       -0.08637
H          3.18298       -2.15859       -1.50999
H          4.66057       -1.55645       -0.75342
H          3.57632       -2.64464        0.16672
H          3.38849       -0.65568        1.87764
H          4.36237        0.28246        0.93308
