19
2781263.log	Energy: -601582.7907135
C          0.53555        1.64247       -0.17562
C         -0.78983        1.89186       -0.31380
C         -1.73607        0.80936       -0.16227
N         -3.05920        0.85647       -0.26424
S         -3.66683       -0.70393        0.01431
N         -2.17832       -1.47198        0.27421
C         -1.21872       -0.55994        0.15485
C          0.20596       -0.75591        0.28866
C          1.03359        0.30857        0.11591
C          2.52012        0.18186        0.25923
O          3.21411        0.87904        0.97923
N          3.10418       -0.82798       -0.51551
N          4.50265       -1.06116       -0.53402
H          1.27672        2.44277       -0.26361
H         -1.18683        2.88561       -0.53034
H          0.55978       -1.75949        0.53665
H          2.60146       -1.39492       -1.19943
H          5.00219       -0.18310       -0.74046
H          4.81424       -1.33738        0.40948
