22
2786573.log	Energy: -459793.5507650
C         -3.51713       -1.00485        0.01063
C         -3.79616        0.38449        0.00452
C         -2.77096        1.30454       -0.00282
C         -1.41743        0.85240       -0.00366
C         -1.12149       -0.53540       -0.00011
C         -2.21122       -1.44648        0.00756
C          0.27443       -0.96915       -0.00486
C          1.31284       -0.00550       -0.00164
C          1.02608        1.42138       -0.00402
O          1.78761        2.36041       -0.00553
N         -0.38068        1.77693       -0.00785
N          2.70903       -0.36571        0.00534
O          2.98287       -1.57820       -0.00791
O          3.55870        0.49585        0.02467
N          0.54600       -2.30130       -0.01251
H         -4.34399       -1.71291        0.01648
H         -4.83668        0.71743        0.00560
H         -2.98195        2.37290       -0.00793
H         -2.01271       -2.52072        0.01154
H         -0.59305        2.78157       -0.01234
H         -0.18485       -2.99644       -0.01458
H          1.52540       -2.64430       -0.01707
