27
2793714.log	Energy: -464657.9364240
C          4.60611       -0.23477        0.02850
C          3.87212       -1.29672       -0.51016
C          2.47721       -1.25891       -0.50950
C          1.79909       -0.14534        0.02317
C          2.54384        0.91451        0.57444
C          3.93920        0.86655        0.57422
C          0.34502       -0.10093        0.00523
C         -0.49415        0.96624       -0.09279
C         -1.91493        0.52350       -0.04407
C         -3.09196        1.24157       -0.09528
C         -4.30715        0.52152       -0.01736
C         -4.32049       -0.86286        0.10625
C         -3.11300       -1.59740        0.15803
C         -1.92738       -0.89837        0.08187
C         -0.51034       -1.38166        0.10012
O         -0.10957       -2.51090        0.15624
C         -0.16219        2.34077       -0.23693
N          0.08989        3.46353       -0.35627
H          5.69477       -0.26742        0.02598
H          4.38965       -2.15944       -0.92877
H          1.90997       -2.10087       -0.91471
H          2.03737        1.77331        1.01427
H          4.50853        1.69187        1.00110
H         -3.09859        2.32606       -0.19226
H         -5.24792        1.07403       -0.05658
H         -5.26851       -1.39745        0.16497
H         -3.12390       -2.68384        0.25548
