24
279887.log	Energy: -414167.9916917
C         -4.67401        0.03829        0.00442
C         -3.88270       -1.11280       -0.04158
C         -2.48932       -1.02181       -0.04220
C         -1.88606        0.24522        0.00341
C         -2.67601        1.41385        0.04727
C         -4.06557        1.29769        0.04772
N         -0.46240        0.42520        0.00728
C          0.48736       -0.59702       -0.00917
O          0.21445       -1.78459       -0.02161
C          1.93620       -0.15571       -0.00177
N          2.24557        1.16655       -0.06168
C          3.55712        1.49844       -0.06073
C          4.56637        0.50619        0.00175
N          4.25753       -0.81185        0.06552
C          2.94336       -1.14922        0.06246
H         -5.75835       -0.04341        0.00589
H         -4.35332       -2.09592       -0.07621
H         -1.87829       -1.93015       -0.07626
H         -2.21575        2.39812        0.08147
H         -4.68019        2.19714        0.08125
H         -0.13279        1.40043        0.01040
H          3.79868        2.56645       -0.11157
H          5.63220        0.76610        0.00148
H          2.68691       -2.22014        0.10914
