28
2805004.log	Energy: -508744.4741088
C         -2.02884        0.14427       -1.12827
C         -3.46731        0.48060       -0.70868
O         -4.11035       -0.68178       -0.14781
C         -3.41620       -1.18606        1.00778
C         -1.97709       -1.58598        0.63332
N         -1.30256       -0.36533        0.08320
C          0.11869       -0.45281       -0.05284
C          0.89732        0.72638        0.04594
C          2.29797        0.67536        0.03952
C          2.94574       -0.55808       -0.08169
C          2.18871       -1.74498       -0.18073
C          0.80268       -1.69099       -0.16357
C          4.37424       -0.62181       -0.09919
N          5.52922       -0.68015       -0.11407
N          0.28305        2.06798        0.23369
O          0.50268        2.62878        1.28781
O         -0.36020        2.53103       -0.69277
H         -1.52095        1.05699       -1.52156
H         -2.03491       -0.60745       -1.94794
H         -3.50015        1.30571        0.02567
H         -4.10947        0.71372       -1.57706
H         -4.02785       -2.05993        1.29459
H         -3.43393       -0.42343        1.80704
H         -1.99911       -2.42739       -0.09301
H         -1.43220       -1.92841        1.53948
H          2.88296        1.59723        0.13744
H          2.70156       -2.70657       -0.27637
H          0.23349       -2.61768       -0.25544
