29
2805422.log	Energy: -449492.4179530
C         -3.84307       -0.06741        0.00599
C         -2.40001       -0.34913        0.00685
C         -1.29631        0.55188        0.00366
C         -0.09517       -0.26813       -0.01529
N         -0.46583       -1.58696       -0.01620
N         -1.84440       -1.61002       -0.01062
C         -2.53908       -2.90487        0.00181
C          1.26270        0.19482       -0.02729
C          2.32923       -0.64681       -0.08016
N          3.65541       -0.24082       -0.26306
C          4.00270        1.18292       -0.03001
C          4.69843       -1.19130        0.20415
N         -1.36772        1.97471        0.02444
O         -2.48018        2.49901        0.03161
O         -0.32866        2.62297        0.03792
H         -4.30656       -0.28393       -0.96944
H         -4.02546        1.01658        0.19455
H         -4.39107       -0.62164        0.78045
H         -1.94428       -3.66550       -0.54461
H         -2.66584       -3.26807        1.03978
H         -3.52937       -2.82823       -0.47749
H          1.37419        1.28577       -0.00348
H          2.17577       -1.73977       -0.08237
H          3.92724        1.48386        1.02766
H          5.02637        1.38379       -0.38358
H          3.32227        1.82866       -0.61810
H          4.81710       -1.20424        1.29969
H          4.46280       -2.21456       -0.13369
H          5.66889       -0.91883       -0.24566
