27
2806955.log	Energy: -508565.4512240
C         -3.13028       -1.73574       -1.01016
C         -3.85742       -0.55212       -0.83052
C         -3.24318        0.56120       -0.25909
C         -1.89222        0.49025        0.11651
C         -1.15091       -0.69166       -0.05132
C         -1.79346       -1.80789       -0.61920
C          0.23489       -0.85660        0.39291
N          0.61558       -1.71412        1.38348
C          1.98874       -1.66414        1.47636
C          2.50987       -0.76452        0.51983
N          1.37714       -0.24539       -0.17489
C          1.52234        0.69663       -1.20449
C          2.78195        1.10023       -1.55119
C          3.94075        0.58523       -0.87561
C          3.81072       -0.32080        0.13895
N         -1.29543        1.71303        0.71637
O         -1.83458        2.17738        1.70056
O         -0.32732        2.19393        0.14868
H         -3.61475       -2.60932       -1.45073
H         -4.90531       -0.50297       -1.12844
H         -3.80910        1.48184       -0.09413
H         -1.23388       -2.74042       -0.73457
H          2.53264       -2.25163        2.19600
H          0.60364        1.08384       -1.65771
H          2.92336        1.83378       -2.34533
H          4.92044        0.94371       -1.19093
H          4.66642       -0.72445        0.67936
