26
280616.log	Energy: -474306.3125015
C         -4.60903        0.27647        0.26861
C         -3.18806       -0.14586        0.12131
N         -2.25092        0.84707        0.06882
C         -0.94825        0.50187       -0.05629
C         -0.51387       -0.83531       -0.12375
C         -1.48487       -1.84948       -0.08212
C         -2.82951       -1.50970        0.03998
C          0.93274       -1.20451       -0.21951
O          1.27313       -2.36443       -0.33560
C          1.87912       -0.07035       -0.12871
C          1.49326        1.23523       -0.00016
C          0.03829        1.64430       -0.13376
O         -0.25803        2.79684       -0.31880
N          2.38018        2.26661        0.28804
O          3.23907       -0.28512       -0.27449
C          3.80710       -1.31487        0.58275
H         -5.01728       -0.02883        1.24401
H         -5.24720       -0.15955       -0.51329
H         -4.72234        1.37411        0.20527
H         -1.16680       -2.89670       -0.14494
H         -3.59747       -2.28066        0.07384
H          2.09698        3.20418        0.02679
H          3.36525        2.06709        0.16046
H          3.64374       -1.06290        1.63198
H          3.37791       -2.29233        0.32614
H          4.86757       -1.26533        0.31269
