30
2809319.log	Energy: -509464.9476222
C         -1.70110       -1.84256        1.23863
C         -0.77630       -0.68922        1.42871
O         -0.14238       -0.52044        2.44796
C         -0.59698        0.28269        0.28683
C         -1.57556        0.86729       -0.42828
N         -2.97602        0.50670       -0.27256
C         -3.84426        1.71941       -0.36098
C         -3.36502       -0.51143       -1.29835
C          0.80642        0.70112        0.06933
C          1.83595       -0.19687       -0.31508
C          3.16591        0.26722       -0.38491
C          3.43416        1.60672       -0.13114
C          2.35691        2.46179        0.17343
N          1.07881        2.02428        0.27030
N          1.58138       -1.60456       -0.66001
O          0.43730       -1.94109       -0.92063
O          2.54408       -2.35317       -0.69328
H         -2.75186       -1.50506        1.22768
H         -1.60101       -2.57483        2.05281
H         -1.50806       -2.36350        0.28693
H         -1.33861        1.68472       -1.12732
H         -3.82134        2.24267       -1.32801
H         -4.88538        1.42123       -0.15240
H         -3.54880        2.42994        0.43076
H         -3.43339       -0.11988       -2.32449
H         -2.63886       -1.34346       -1.29941
H         -4.34736       -0.92624       -1.01776
H          3.96878       -0.43587       -0.64209
H          4.45271        1.99045       -0.16567
H          2.51114        3.53552        0.35346
