26
2809315.log	Energy: -471808.6327725
C          1.05218       -2.02899       -1.40960
C          1.59348       -0.85145       -0.71077
C          0.96052        0.28793       -0.17056
C          2.02220        1.11078        0.37309
N          3.22093        0.49211        0.18552
N          2.95398       -0.68035       -0.47501
C          1.88756        2.41373        1.05063
C         -0.44713        0.62208       -0.18811
C         -1.46773       -0.28958        0.19451
C         -2.82063        0.06471        0.05593
C         -3.14147        1.33738       -0.40179
C         -2.08993        2.22491       -0.70514
N         -0.78559        1.88039       -0.61475
N         -1.15502       -1.61566        0.76056
O         -0.42760       -1.67453        1.73134
O         -1.66870       -2.58083        0.21301
H          1.68348       -2.36021       -2.24775
H          0.05226       -1.83120       -1.83452
H          0.93501       -2.89268       -0.72883
H          3.71059       -1.30775       -0.70531
H          1.36949        3.13931        0.39808
H          1.29467        2.32502        1.97393
H          2.86376        2.84492        1.32258
H         -3.60393       -0.65664        0.30911
H         -4.17768        1.64664       -0.52080
H         -2.29166        3.25098       -1.04464
