17
282027.log	Energy: -325986.5638604
C          0.76106       -1.49837        0.02604
C          1.77549       -0.54031        0.00429
N          1.56292        0.85001        0.00298
C          0.29706        1.32502       -0.00244
C         -0.83079        0.42378       -0.00857
N         -2.19098        0.61261       -0.02314
N         -2.69623       -0.62611       -0.01070
N         -1.78953       -1.64756        0.01148
C         -0.56353       -1.02342        0.01247
N          0.10768        2.69076        0.04674
N          3.12255       -0.89896       -0.07939
H          0.95521       -2.56311        0.02998
H         -3.69736       -0.80998       -0.01635
H         -0.81365        3.07717       -0.07927
H          0.89712        3.31225       -0.04074
H          3.39102       -1.82326        0.21565
H          3.81714       -0.17851        0.06421
