33
2825430.log	Energy: -500174.0888430
C          5.05148        0.04440       -0.07430
O          4.11085       -1.05586       -0.14370
C          2.76957       -0.75825       -0.09492
C          2.21918        0.51474        0.04628
C          0.82020        0.62804        0.08416
C         -0.02565       -0.48831       -0.01458
C          0.57590       -1.76611       -0.15702
C          1.94988       -1.91000       -0.19575
N         -1.44779       -0.27933        0.11920
C         -2.17001       -1.40442        0.79932
C         -3.60951       -0.95413        1.10132
C         -4.33908       -0.53740       -0.18176
C         -3.54186        0.55517       -0.90539
C         -2.09963        0.10496       -1.18105
N          0.26574        2.00361        0.25182
O         -0.25721        2.51726       -0.72226
O          0.41387        2.53628        1.33423
H          6.01105       -0.47845       -0.18841
H          4.98646        0.53459        0.90180
H          4.88750        0.74397       -0.89886
H          2.84337        1.40154        0.13774
H         -0.05974       -2.64908       -0.24375
H          2.42261       -2.88682       -0.30473
H         -2.18402       -2.33562        0.19313
H         -1.63922       -1.62974        1.75033
H         -3.58573       -0.09974        1.80920
H         -4.15278       -1.76914        1.61289
H         -5.35377       -0.16974        0.05986
H         -4.47872       -1.41202       -0.84452
H         -3.52517        1.47771       -0.28809
H         -4.03183        0.82944       -1.85771
H         -1.52148        0.94910       -1.62686
H         -2.08706       -0.72958       -1.91323
