28
2825993.log	Energy: -498639.4948514
C         -5.27296        0.38341        0.02738
C         -4.98453       -0.98516       -0.01592
C         -3.66322       -1.43140       -0.03223
C         -2.61981       -0.48178       -0.00930
C         -2.89638        0.89171        0.02843
C         -4.22886        1.31229        0.04796
N         -1.28515       -1.01788       -0.03415
C         -0.10855       -0.29450       -0.01383
N          0.09040        0.99265       -0.02237
C          1.40229        1.57483       -0.01871
O          1.53136        2.77312       -0.02720
C          2.51446        0.58758       -0.00514
C          3.86101        0.99019       -0.00546
C          4.87654        0.03672        0.00914
C          4.56569       -1.33363        0.02458
C          3.24171       -1.76768        0.02507
C          2.23860       -0.78825        0.00916
O          0.93547       -1.27331        0.00943
H         -6.30642        0.72305        0.04335
H         -5.79706       -1.71173       -0.03448
H         -3.45327       -2.49747       -0.06363
H         -2.09247        1.63802        0.04092
H         -4.44918        2.38059        0.07865
H         -1.18919       -2.04118       -0.01799
H          4.08925        2.06123       -0.01761
H          5.91921        0.35177        0.00882
H          5.37297       -2.06926        0.03646
H          2.97884       -2.82280        0.03668
