34
2829622.log	Energy: -487727.9781365
C          2.72694       -0.55598        1.88425
C          2.61051       -1.34892        0.58224
C          1.12723       -1.74073        0.29204
N          0.37420       -0.52750       -0.14908
C          0.95444        0.04758       -1.40312
C          2.42086        0.49377       -1.13092
N          3.24146       -0.61322       -0.55304
C          2.46430        1.74168       -0.25047
C         -1.05492       -0.66007       -0.16330
C         -1.72000       -1.90037       -0.28894
C         -3.10674       -1.97528       -0.19974
C         -3.87298       -0.82194        0.01949
C         -3.24082        0.41048        0.15581
C         -1.84312        0.49246        0.06297
N         -1.22908        1.82938        0.26338
O         -1.24739        2.28881        1.38858
O         -0.78299        2.40009       -0.71860
H          2.05633        0.32031        1.87850
H          3.74763       -0.17257        2.01438
H          2.47498       -1.16614        2.75488
H          3.18852       -2.30620        0.70442
H          1.09682       -2.56120       -0.45439
H          0.66438       -2.12637        1.22623
H          0.35290        0.93040       -1.72481
H          0.92576       -0.67868       -2.24197
H          2.88313        0.75157       -2.12376
H          3.46869       -1.28249       -1.29799
H          3.49829        2.02281       -0.01920
H          1.97063        2.59155       -0.73552
H          1.95023        1.57559        0.71041
H         -1.14484       -2.80770       -0.46642
H         -3.60449       -2.94140       -0.30406
H         -4.95777       -0.89022        0.08657
H         -3.82842        1.31298        0.34227
