18
2830775.log	Energy: -383437.3744909
C         -0.46319        1.50685       -0.02407
C          0.67528        0.76821       -0.05303
C          0.70864       -0.74467       -0.05681
N          1.96585       -1.16188       -0.10511
N          2.79380       -0.06239       -0.31521
N          2.03602        1.14304        0.01326
N          4.06365       -0.04714        0.30554
C         -0.53312       -1.50103       -0.03360
C         -1.65548       -0.76416        0.00316
C         -1.68895        0.76936        0.01089
N         -2.97336        1.12840        0.05173
N         -3.73832       -0.04702        0.06710
N         -3.06299       -1.11926        0.04217
H         -0.49464        2.59484       -0.01547
H          2.38372        1.98932       -0.45011
H          4.69728       -0.62966       -0.26098
H          4.06568       -0.40451        1.26987
H         -0.50372       -2.59361       -0.03886
