28
283477.log	Energy: -451862.2209736
C         -4.52807       -1.17689        0.93939
C         -3.91783       -1.23314       -0.44471
O         -2.47076       -1.01604       -0.35403
C         -2.03162        0.28109       -0.21838
O         -2.81894        1.21115       -0.19635
C         -0.57180        0.34095       -0.12498
C          0.20477       -0.80991       -0.14890
C          1.61115       -0.73249       -0.05517
C          2.45915       -1.88935       -0.07414
C          3.81634       -1.75740        0.02105
C          4.41248       -0.45838        0.14273
C          3.64546        0.67113        0.16692
C          2.21084        0.56486        0.06618
N          1.46726        1.71493        0.09165
C          0.10385        1.61965       -0.00362
N         -0.59102        2.80347        0.01648
H         -3.97410       -1.80356        1.65049
H         -5.57019       -1.51731        0.93319
H         -4.51763       -0.15017        1.33623
H         -3.94368       -2.24198       -0.89543
H         -4.34565       -0.48048       -1.13112
H         -0.28355       -1.78790       -0.23970
H          1.99245       -2.87027       -0.16634
H          4.46994       -2.62699        0.00619
H          5.49943       -0.39635        0.21589
H          4.07709        1.66862        0.25883
H         -0.10014        3.67919        0.11246
H         -1.60835        2.81677       -0.03287
