27
2837745.log	Energy: -485345.3515049
C         -5.37264       -0.43257       -0.00808
C         -4.50004       -1.52066        0.10071
C         -3.11883       -1.31466        0.10866
C         -2.59828       -0.01270        0.00355
C         -3.48177        1.07755       -0.10683
C         -4.86176        0.86457       -0.11205
C         -1.15028        0.21650        0.01006
N         -0.59052        1.42531        0.04510
C          0.82903        1.22681        0.03612
C          1.81215        2.15859        0.05540
C          3.20746        1.74832        0.04784
C          3.50020        0.42909        0.02288
C          2.45671       -0.66124       -0.02296
N          3.05571       -1.83456       -0.07407
O          4.40257       -1.67856       -0.06561
N          4.75202       -0.25799       -0.09133
C          1.08056       -0.25586       -0.00449
C         -0.12713       -0.87504       -0.02373
H         -6.44926       -0.59647       -0.01258
H         -4.89759       -2.53120        0.18046
H         -2.44924       -2.16933        0.19774
H         -3.08045        2.09162       -0.18801
H         -5.54002        1.71253       -0.19750
H          1.58693        3.22720        0.07726
H          3.97325        2.52064        0.05080
H          5.41832       -0.12548        0.67729
H         -0.35541       -1.92266       -0.06117
