30
2838371.log	Energy: -509477.5019180
C         -2.24846       -1.89681       -0.44744
C         -2.09332       -0.42004       -0.59985
N         -0.99623        0.28466       -0.49504
N          0.20296       -0.32932       -0.20705
C          1.35315        0.45229       -0.15020
C          1.30515        1.87257       -0.31148
C          2.45205        2.62766       -0.22694
C          3.70883        2.01896        0.02000
C          3.78400        0.65496        0.17641
C          2.61823       -0.16033        0.09365
N          2.80277       -1.58658        0.26259
O          1.80833       -2.32016        0.19586
O          3.92581       -2.01777        0.46262
C         -3.33520        0.36804       -0.92211
C         -4.30140        0.33021        0.25959
O         -5.19529       -0.48154        0.30086
C         -4.06234        1.34903        1.32803
H         -1.77891       -2.44583       -1.27854
H         -3.30870       -2.20613       -0.42890
H         -1.80757       -2.27497        0.48784
H          0.28172       -1.37046       -0.12327
H          0.33813        2.34395       -0.50486
H          2.40543        3.71233       -0.35081
H          4.60144        2.63797        0.08246
H          4.74468        0.15955        0.36751
H         -3.09423        1.41837       -1.19756
H         -3.82602       -0.06920       -1.82101
H         -2.99293        1.49042        1.54275
H         -4.46449        2.33090        1.03913
H         -4.56009        1.06826        2.26921
