34
2838217.log	Energy: -487728.3602301
C          2.30025       -1.23335        1.25422
C          3.41650       -0.56078        0.45205
C          4.41176       -1.60987       -0.06017
C          2.85928        0.24350       -0.74822
C          2.08454        1.46091       -0.31739
N          0.79836        1.56064       -0.10611
N         -0.02383        0.46352       -0.27803
C         -1.38567        0.61270       -0.06188
C         -1.97993        1.90017        0.14295
C         -3.33873        2.03061        0.29667
C         -4.19033        0.89434        0.25724
C         -3.64865       -0.35253        0.06802
C         -2.24170       -0.53109       -0.08556
N         -1.76656       -1.88489       -0.24278
O         -0.54858       -2.07336       -0.37347
O         -2.57062       -2.80250       -0.23572
C          2.87250        2.71884       -0.10350
H          1.66534       -1.88084        0.63212
H          1.65269       -0.49968        1.74660
H          2.71079       -1.87183        2.04601
H          3.96252        0.14729        1.12469
H          3.93210       -2.33132       -0.73218
H          5.24554       -1.15362       -0.60271
H          4.83949       -2.18425        0.77019
H          3.70004        0.55166       -1.40464
H          2.24264       -0.42050       -1.38927
H          0.37829       -0.49867       -0.40387
H         -1.32482        2.77515        0.17769
H         -3.78242        3.01653        0.45344
H         -5.26308        1.02657        0.37613
H         -4.28447       -1.24605        0.02816
H          3.58052        2.59312        0.72923
H          3.44992        2.98501       -0.99923
H          2.23393        3.58269        0.14294
