26
2838129.log	Energy: -507993.1172683
C          3.45876       -1.95324        0.01882
C          4.22814       -0.76572        0.00051
C          3.59082        0.45492       -0.01313
C          2.17052        0.54283       -0.00863
C          1.39584       -0.65177        0.00850
C          2.08161       -1.90318        0.02326
N         -0.00465       -0.58993        0.01208
N         -0.69505       -1.76702        0.00016
C         -1.99691       -1.80978       -0.00735
C         -3.00162       -0.76438       -0.00627
C         -4.37407       -0.76894       -0.10894
C         -4.80462        0.60410       -0.04371
C         -3.67656        1.37018        0.09590
O         -2.53904        0.56166        0.12504
N          1.60041        1.87953       -0.02672
O          2.35611        2.83756       -0.03939
O          0.37256        1.99482       -0.02887
H          3.97073       -2.91862        0.02938
H          5.31469       -0.82698       -0.00394
H          4.16528        1.39068       -0.02845
H          1.49447       -2.82633        0.03776
H         -0.48557        0.34801        0.00636
H         -2.41721       -2.83700       -0.01871
H         -5.02376       -1.61632       -0.21951
H         -5.82464        0.93538       -0.09594
H         -3.44746        2.41074        0.18648
