32
2838177.log	Energy: -486977.7818847
C         -2.31730        1.30193       -0.73691
C         -2.00200       -0.15090       -0.59085
N         -0.82492       -0.68322       -0.38803
N          0.29666        0.11457       -0.28401
C          1.52638       -0.49286       -0.07248
C          1.66315       -1.91772       -0.02081
C          2.89223       -2.49892        0.17574
C          4.05854       -1.70459        0.33194
C          3.95746       -0.33559        0.28667
C          2.69952        0.30548        0.08622
N          2.69801        1.75018        0.05957
O          1.61893        2.33638       -0.09912
O          3.75355        2.34728        0.19487
C         -3.13922       -1.14068       -0.70336
C         -4.11535       -1.03049        0.47791
C         -5.21317       -0.03714        0.23371
C         -5.53291        0.93605        1.08348
H         -1.89580        1.71758       -1.66473
H         -1.92839        1.90231        0.09995
H         -3.40132        1.49487       -0.76602
H          0.23155        1.15897       -0.29533
H          0.76537       -2.53013       -0.14064
H          2.98572       -3.58658        0.21402
H          5.01957       -2.18989        0.48499
H          4.84348        0.30140        0.40333
H         -3.66151       -0.98257       -1.66968
H         -2.74168       -2.17999       -0.75153
H         -4.57485       -2.02565        0.66637
H         -3.55529       -0.79454        1.40726
H         -5.75602       -0.17912       -0.70324
H         -6.33960        1.63358        0.90914
H         -5.02340        1.11239        2.01982
