20
2844183.log	Energy: -744135.2558941
C          1.24616        1.39885       -0.01317
C          0.90521        0.05967       -0.01201
O          2.07053       -0.74079       -0.00501
C          3.12674        0.17308       -0.00151
C          2.67466        1.47568       -0.00655
N          4.45894       -0.43025        0.00776
O          5.39672        0.34763        0.01650
O          4.52641       -1.64268        0.00615
C         -0.29046       -0.75017       -0.01397
C         -1.55886       -0.32311       -0.00608
C         -2.09482        1.06329        0.00102
O         -1.50435        2.11636        0.00059
N         -3.52665        1.04376        0.00776
C         -4.18339       -0.20594        0.00778
O         -5.35554       -0.41335        0.01371
S         -2.89109       -1.48039       -0.00416
H          0.56591        2.24504       -0.01694
H          3.27157        2.37573       -0.00544
H         -0.07385       -1.83898       -0.02085
H         -4.05372        1.92474        0.01263
