25
286295.log	Energy: -463543.6048366
C          5.23895       -0.71962        0.30728
C          4.26046        0.39788        0.09246
O          4.62327        1.55262        0.01128
C          2.81310        0.03737       -0.03184
C          1.95342        0.97511       -0.62752
C          0.59291        0.70503       -0.76503
C          0.08757       -0.52469       -0.30316
C          0.94050       -1.47237        0.29527
C          2.29743       -1.18387        0.42618
N         -1.27047       -0.90248       -0.50435
C         -2.28682       -0.22828       -0.12045
C         -2.52897        1.03084        0.66428
C         -3.84716        1.21337        0.79169
C         -4.56471        0.09539        0.09572
O         -5.70587       -0.19060       -0.07648
O         -3.55126       -0.76703       -0.45349
H          6.27294       -0.35889        0.18267
H          5.09375       -1.54486       -0.40125
H          5.16977       -1.13061        1.32296
H          2.36503        1.92863       -0.97732
H         -0.06150        1.42694       -1.24924
H          0.53679       -2.42644        0.63694
H          2.95412       -1.91907        0.89440
H         -1.70681        1.62826        1.03186
H         -4.39988        1.99663        1.28972
