26
286368.log	Energy: -451037.5332773
C          3.46309       -0.10125        0.02750
C          2.97057       -1.58093        0.05277
C          1.46749       -1.50493        0.03256
C          0.51227       -2.48540        0.01341
C         -0.85225       -2.08519       -0.00545
C         -1.23085       -0.75103        0.01090
C         -0.26821        0.31693        0.00097
C         -0.43233        1.75732       -0.06280
C          0.69142        2.58628       -0.07597
C          2.02102        2.09106       -0.04872
C          2.21101        0.73645       -0.00015
C          1.06717       -0.12379        0.01793
N         -1.70574        2.34805       -0.24122
N         -2.69328       -0.52125        0.05305
O         -3.38852       -1.16472       -0.71174
O         -3.13181        0.25631        0.89221
H          4.07976        0.12889        0.91431
H          4.09485        0.09362       -0.85738
H          3.33309       -2.10858        0.95370
H          3.35536       -2.14527       -0.81628
H          0.75961       -3.54420        0.00871
H         -1.61762       -2.86992       -0.03340
H          0.56050        3.66735       -0.12141
H          2.85138        2.79307       -0.06703
H         -2.46967        1.97025        0.31750
H         -1.71399        3.36136       -0.20298
