28
286497.log	Energy: -493763.5959818
C          4.99343        1.03456       -0.16015
C          5.50401       -0.10454        0.46502
C          4.61681       -1.14088        0.81003
N          3.28643       -1.07804        0.56354
C          2.80167        0.04225       -0.05202
C          3.62336        1.11898       -0.42984
C          1.33952        0.06678       -0.30561
N          0.69044        1.20965       -0.29986
N         -0.66521        1.19080       -0.61696
C         -1.34042       -0.06972       -0.31245
N         -0.69190       -1.21265       -0.28749
N          0.66550       -1.19711       -0.59798
C         -2.80252       -0.04197       -0.05977
C         -3.62916       -1.11309       -0.44192
C         -4.99794       -1.02663       -0.16561
C         -5.50175        0.10710        0.47392
C         -4.61013        1.13837        0.82262
N         -3.28188        1.07536        0.56563
H          5.65535        1.85564       -0.43894
H          6.56610       -0.19481        0.68213
H          4.97067       -2.05522        1.30236
H          3.19371        1.99764       -0.91521
H         -1.13160        2.03389       -0.22558
H          1.13035       -2.03614       -0.19621
H         -3.20480       -1.98886       -0.93690
H         -5.66403       -1.84230       -0.45082
H         -6.56186        0.19795        0.69997
H         -4.95881        2.04885        1.32574
