32
2866875.log	Energy: -510199.4737829
C          5.04915        0.02050       -0.06634
O          4.09887       -1.07054       -0.15711
C          2.76118       -0.76523       -0.09839
C          2.21760        0.51155        0.03771
C          0.81981        0.63318        0.08109
C         -0.03188       -0.47932       -0.00606
C          0.56104       -1.76077       -0.14728
C          1.93404       -1.91251       -0.19218
N         -1.45380       -0.26117        0.13265
C         -2.17698       -1.37581        0.82607
C         -3.63568       -0.92705        1.07596
N         -4.34978       -0.52991       -0.16806
C         -3.57117        0.51610       -0.88848
C         -2.10932        0.10646       -1.16866
N          0.27337        2.01361        0.24042
O         -0.26834        2.51437       -0.73018
O          0.44545        2.55987        1.31198
H          6.00556       -0.51389       -0.15020
H          4.96364        0.51932        0.90373
H          4.91445        0.71481       -0.90073
H          2.84651        1.39588        0.12247
H         -0.08056       -2.64021       -0.22665
H          2.40036       -2.89266       -0.29945
H         -2.16143       -2.32775        0.25490
H         -1.67181       -1.56360        1.79866
H         -3.64407       -0.05418        1.77036
H         -4.20391       -1.73864        1.57548
H         -4.47208       -1.34880       -0.77406
H         -3.58754        1.44496       -0.27078
H         -4.08819        0.75898       -1.84007
H         -1.55793        0.97319       -1.60685
H         -2.06612       -0.71722       -1.91008
