23
287331.log	Energy: -436741.0992461
C         -0.33475        1.56168       -0.34580
C         -1.65741        1.31166        0.01656
C         -2.14270       -0.00454       -0.02164
C         -1.31859       -1.07074       -0.41981
C          0.00125       -0.81110       -0.77851
C          0.49807        0.50353       -0.74430
C          1.91675        0.77283       -1.14988
C          2.89735       -0.08225       -0.36608
O          3.40401       -1.10547       -0.79077
N          3.24252        0.41084        0.89860
N          4.07967       -0.31187        1.78908
N         -3.54559       -0.27179        0.35989
O         -4.21830        0.67547        0.73430
O         -3.94502       -1.42164        0.27711
H          0.04347        2.58369       -0.32320
H         -2.32031        2.12721        0.32895
H         -1.72067       -2.09065       -0.44454
H          0.65481       -1.63195       -1.08978
H          2.04406        0.53021       -2.23557
H          2.17799        1.84957       -1.07606
H          2.73996        1.16669        1.36727
H          5.04570       -0.29006        1.42978
H          3.81350       -1.30830        1.80191
