26
288299.log	Energy: -391657.4423961
C          3.63463        0.08000        1.02947
C          3.13960       -0.24306       -0.37566
N          1.67681       -0.54685       -0.39453
C          0.69166        0.47859       -0.23712
C          0.96336        1.83406       -0.26868
C         -0.11053        2.75720       -0.14707
C         -1.41186        2.34204        0.00815
C         -1.72303        0.94696        0.05035
C         -0.66492        0.01551       -0.07322
C         -0.94392       -1.39291       -0.03115
C         -2.23340       -1.85850        0.12097
C         -3.28882       -0.91531        0.23884
C         -3.05037        0.44096        0.20720
N          0.17940       -2.28443       -0.15097
N          1.34594       -1.86950       -0.28587
H          3.11563        0.94375        1.46493
H          4.70787        0.30525        1.02615
H          3.48076       -0.76457        1.71593
H          3.32304        0.60540       -1.07343
H          3.68505       -1.12729       -0.78611
H          1.97278        2.21407       -0.38859
H          0.12663        3.82222       -0.17932
H         -2.22187        3.06175        0.09984
H         -2.44264       -2.92692        0.15088
H         -4.30610       -1.29262        0.35732
H         -3.87054        1.15104        0.29947
