20
288909.log	Energy: -368316.8246222
C          1.38715       -2.34466       -0.01213
C         -0.01306       -2.11638       -0.00784
C         -0.49558       -0.82340       -0.00082
C          0.37612        0.29855        0.00078
C         -0.16279        1.66155        0.00156
O          0.54135        2.66344        0.01760
C         -1.65164        1.82516       -0.02285
C         -2.48359        0.78477       -0.02237
C         -1.98856       -0.62418        0.00595
O         -2.76219       -1.55717        0.03458
C          1.77815        0.05963        0.00054
C          2.26891       -1.29213       -0.00917
N          2.68616        1.09152        0.01195
H          1.75287       -3.37401       -0.01688
H         -0.70367       -2.96288       -0.00771
H         -1.99324        2.86436       -0.04091
H         -3.57210        0.88815       -0.03957
H          3.34274       -1.46649       -0.01376
H          2.37182        2.06630        0.01523
H          3.67446        0.92030        0.00068
