25
289374.log	Energy: -473689.3897190
C         -5.12344        0.57933        0.45886
O         -3.68166        0.40680        0.36967
C         -3.22932       -0.81358       -0.08021
O         -3.97292       -1.71854       -0.35772
C         -1.71410       -0.82359       -0.11368
N         -1.15674        0.49853       -0.49406
C          0.21266        0.74328       -0.22472
C          1.15442       -0.29756       -0.12407
C          2.50660        0.03134        0.01893
C          2.95463        1.35245        0.06363
C          2.00728        2.38063       -0.03746
C          0.65447        2.09158       -0.17327
N          3.49830       -1.07395        0.12980
O          3.07292       -2.21816        0.13187
O          4.67644       -0.77027        0.21597
H         -5.22119        1.64526        0.69068
H         -5.50871       -0.05391        1.26426
H         -5.59115        0.32118       -0.49713
H         -1.34460       -1.19355        0.87589
H         -1.38788       -1.57754       -0.88003
H         -1.78766        1.27516       -0.25553
H          0.86106       -1.34875       -0.16930
H          4.01921        1.57418        0.17395
H          2.34035        3.42007       -0.00626
H         -0.06776        2.90382       -0.25305
