29
289826.log	Energy: -384705.4236762
C          2.65455       -0.04741        1.78930
C          2.50074        0.27838        0.34928
C          2.30141       -0.62351       -0.65163
C          1.18298       -1.54526       -0.46951
C          0.01747       -0.86200       -0.25910
C         -1.31298       -1.45559       -0.07182
C         -2.22416       -0.45148        0.10093
C         -1.52628        0.83596        0.02264
C         -0.18951        0.63017       -0.19277
C          0.79032        1.74206       -0.31017
C          2.11399        1.64771       -0.02603
C          0.21127        3.06369       -0.71460
C         -3.67177       -0.58355        0.31834
O         -4.42152        0.36783        0.41151
C          1.34056       -3.01138       -0.58713
H          3.50497        0.50166        2.22059
H          2.82734       -1.11705        1.96550
H          1.76314        0.24447        2.36834
H          2.56225       -0.40070       -1.68496
H         -1.49082       -2.51582       -0.07653
H         -2.05598        1.76783        0.13109
H          2.81642        2.46430       -0.05403
H         -0.41123        3.49090        0.08528
H         -0.42703        2.96455       -1.60545
H          0.98190        3.80782       -0.95378
H         -4.05291       -1.61658        0.39541
H          1.77053       -3.28142       -1.56643
H          2.04843       -3.38781        0.17004
H          0.40363       -3.57149       -0.47359
