30
2898581.log	Energy: -509502.3229133
C         -4.12323       -0.11434        0.80619
C         -4.10465       -1.50509        0.15139
C         -2.62610       -1.82805       -0.11897
N         -1.88807       -0.52772       -0.00404
C         -2.82491        0.57561        0.36134
C         -0.54534       -0.42552       -0.20812
C          0.20956        0.79323       -0.15070
C          1.61935        0.73905        0.00860
C          2.30401       -0.45688       -0.02192
C          1.57825       -1.65446       -0.30026
C          0.21370       -1.64344       -0.40137
C          3.77484       -0.58714        0.13895
O          4.42259       -1.51908       -0.31669
N          4.43646        0.40111        0.86923
N         -0.33250        2.12419       -0.33461
O         -1.34712        2.26598       -1.00920
O          0.27057        3.06320        0.17131
H         -4.17044       -0.19787        1.90751
H         -5.00966        0.46849        0.50008
H         -4.57078       -2.26499        0.80177
H         -4.68448       -1.50102       -0.79050
H         -2.48165       -2.26348       -1.13091
H         -2.22695       -2.54833        0.62914
H         -3.00413        1.23440       -0.52790
H         -2.38890        1.20358        1.16536
H          2.15102        1.69361        0.12943
H          2.14958       -2.58242       -0.43385
H         -0.30766       -2.56882       -0.63317
H          3.97759        1.17322        1.31306
H          5.43417        0.33186        1.00189
