24
290341.log	Energy: -393373.4472423
C          3.68630       -0.88593        0.00428
C          3.68960        0.53106        0.00455
C          2.49491        1.22055        0.00055
C          1.26336        0.51372       -0.00141
C          1.25526       -0.89997       -0.00149
C          2.50055       -1.59087        0.00098
C          0.00613       -1.59806       -0.00432
C         -1.19513       -0.93216       -0.00314
C         -2.48172       -1.61106       -0.00259
C         -3.64974       -0.92074        0.00191
C         -3.63450        0.51903        0.00722
C         -2.44963        1.18477        0.00462
N         -1.21362        0.49129       -0.00105
C          0.02604        1.27820       -0.00374
O         -0.10283        2.48741       -0.00737
H          4.64107       -1.41456        0.00668
H          4.63844        1.06255        0.00661
H          2.46856        2.31401       -0.00034
H          2.49932       -2.67867        0.00118
H          0.02181       -2.68530       -0.00726
H         -2.45595       -2.70113       -0.00719
H         -4.61593       -1.42699        0.00179
H         -4.58018        1.05703        0.01335
H         -2.36768        2.28368        0.00699
