28
2904927.log	Energy: -534498.6952262
C          5.85583       -0.56255        0.97152
C          5.31846       -0.56252       -0.44369
O          3.85765       -0.64677       -0.41624
C          3.15291        0.51156       -0.16499
O          3.71349        1.57295       -0.00698
C          1.69991        0.23664       -0.14394
C          0.81815        1.32005        0.00381
C         -0.55890        1.10971        0.02887
C         -1.05574       -0.19889       -0.09313
C         -0.17671       -1.29485       -0.23781
C          1.19603       -1.06890       -0.26390
N         -2.45838       -0.49013       -0.09184
C         -3.47729        0.44572        0.10445
O         -3.34023        1.62895        0.28915
C         -4.89028       -0.18857        0.01393
O         -5.89190        0.26222       -0.45986
O         -4.85255       -1.43565        0.58983
H          5.59475        0.37011        1.49480
H          6.94836       -0.65199        0.98647
H          5.44269       -1.39032        1.56160
H          5.60968        0.34042       -1.01025
H          5.56731       -1.48018       -1.00703
H          1.22239        2.33438        0.09957
H         -1.23911        1.96125        0.14276
H         -0.55677       -2.31018       -0.32991
H          1.89247       -1.90619       -0.37775
H         -2.71685       -1.48673       -0.14411
H         -5.74216       -1.88766        0.60886
