26
290432.log	Energy: -448706.4642877
C         -4.01681       -0.25121        0.04963
C         -3.29345       -1.02684        0.96105
C         -1.89690       -0.99799        0.95599
C         -1.21475       -0.19024        0.03041
C         -1.94358        0.59514       -0.87787
C         -3.33945        0.56159       -0.86538
C          0.25515       -0.17081        0.01205
C          0.99531        0.98988        0.26171
N          2.34924        1.04055        0.29339
C          3.01169       -0.15427        0.02783
N          2.39325       -1.34773       -0.29323
C          1.01675       -1.35415       -0.27348
N          0.41816       -2.57772       -0.51393
N          4.39069       -0.15421        0.12619
C          0.33690        2.33077        0.55109
O         -0.16590        2.99321       -0.32085
H         -5.10475       -0.27494        0.05562
H         -3.81960       -1.65154        1.68136
H         -1.33463       -1.59191        1.67516
H         -1.41449        1.24365       -1.58026
H         -3.90102        1.17461       -1.56963
H          0.98842       -3.35046       -0.82906
H         -0.56535       -2.61820       -0.73472
H          4.87737        0.72834        0.18428
H          4.90728       -0.95253       -0.21107
H          0.36953        2.62981        1.61004
