19
29049.log	Energy: -458375.6574553
C         -2.70729        1.72434        0.06497
C         -1.30022        1.25238        0.04151
C         -0.97960       -0.09024        0.00644
C          0.40351       -0.48716       -0.02161
N          1.00908       -1.68070       -0.10576
O          2.36866       -1.47918       -0.11430
N          2.63990       -0.06447       -0.03858
C          1.43215        0.56339        0.01493
C          1.06955        1.94592        0.07633
C         -0.25297        2.26054        0.08587
O          3.79387        0.26327       -0.03721
N         -2.01681       -1.14794        0.00481
O         -1.89579       -2.05537        0.79920
O         -2.93832       -1.01616       -0.78425
H         -3.33641        1.19017       -0.67771
H         -2.81644        2.79657       -0.15017
H         -3.18107        1.54655        1.04578
H          1.86152        2.69794        0.11132
H         -0.57084        3.30495        0.12934
