24
291352.log	Energy: -426694.2302263
C         -3.83527       -1.03386        0.09481
N         -2.84603        0.01511       -0.26306
C         -3.33600        1.39141        0.00775
C         -1.48323       -0.25863       -0.07010
C         -0.52907        0.79480       -0.05231
C          0.82934        0.49975       -0.00908
C          1.31293       -0.81545        0.03435
C          0.35709       -1.85240        0.02912
C         -1.00354       -1.59447       -0.01740
C          2.75397       -1.20206        0.08868
O          3.08754       -2.36812        0.07612
N          1.75437        1.67833       -0.00762
O          1.31479        2.73315        0.41866
O          2.88714        1.52185       -0.43478
H         -4.81187       -0.78615       -0.35686
H         -3.97127       -1.14747        1.18294
H         -3.53008       -2.00991       -0.32470
H         -3.22982        1.69256        1.06319
H         -2.78752        2.11505       -0.62333
H         -4.40060        1.47307       -0.27017
H         -0.85148        1.83976       -0.06996
H          0.72375       -2.88788        0.06359
H         -1.70497       -2.42884       -0.02577
H          3.49234       -0.38385        0.14099
