30
292080.log	Energy: -499273.6175830
C          4.96955       -2.04093       -0.40616
C          3.95673       -0.94491       -0.34715
C          4.18813        0.18035        0.46384
C          3.25502        1.21196        0.52856
C          2.06230        1.11976       -0.21519
C          1.82373       -0.00161       -1.02913
C          2.77164       -1.02333       -1.09421
N          1.18604        2.24748       -0.19064
C         -0.07237        2.19875        0.06667
C         -0.91144        1.02437        0.42651
C         -2.14069        0.83917       -0.21657
C         -2.93335       -0.26157        0.13626
C         -2.52501       -1.17230        1.12231
C         -1.29881       -0.97362        1.75872
C         -0.49366        0.11578        1.41326
N         -4.23175       -0.46721       -0.54707
O         -4.55924        0.34839       -1.39290
O         -4.89254       -1.43932       -0.22134
H          5.96208       -1.65571       -0.68213
H          4.71464       -2.81752       -1.13902
H          5.07406       -2.53917        0.56842
H          5.10918        0.25081        1.04087
H          3.44473        2.09309        1.14158
H          0.91000       -0.06606       -1.61744
H          2.58672       -1.88555       -1.73331
H         -0.62714        3.15639        0.02655
H         -2.48750        1.53397       -0.99043
H         -3.16633       -2.02257        1.37966
H         -0.96668       -1.67404        2.52670
H          0.46985        0.26073        1.91023
