29
2921509.log	Energy: -519552.1628798
C          2.78208        2.94988        0.09078
N          2.71685        1.47758        0.05027
C          1.54455        0.77541        0.00247
C          0.28743        1.46387       -0.00160
C         -0.87061        0.72325       -0.03985
C         -0.84503       -0.73642       -0.08537
C          0.34253       -1.40844       -0.09350
C          1.56063       -0.66488       -0.03667
N          2.77385       -1.43933       -0.02505
O          3.85969       -0.84715        0.01078
O          2.69491       -2.65965       -0.04825
N         -2.20256       -1.19921       -0.21182
C         -3.07209       -0.07193       -0.05084
O         -4.27833       -0.05095       -0.02855
N         -2.21808        1.10439       -0.02948
C         -2.73133        2.48123        0.00459
C         -2.60318       -2.52459        0.29795
H          2.27352        3.40617       -0.77773
H          3.83828        3.27272        0.06772
H          2.32693        3.35218        1.01446
H          3.62553        0.97611        0.05359
H          0.25219        2.54680        0.02002
H          0.39534       -2.50291       -0.13910
H         -2.38117        3.01014        0.90767
H         -2.41146        3.04275       -0.89081
H         -3.84048        2.46091        0.02141
H         -3.70488       -2.62602        0.24447
H         -2.16000       -3.30462       -0.34772
H         -2.28437       -2.70044        1.33894
