29
292706.log	Energy: -667458.7910467
C          2.64044        1.06984        0.74606
C          3.87555        0.48920        0.03851
O          4.08983       -0.87728        0.45019
C          2.97117       -1.73382        0.15372
C          1.71054       -1.22306        0.87584
N          1.46167        0.19500        0.48571
C          0.48929        0.54967       -0.37772
S          0.31070        2.04932       -1.03802
C         -0.59082       -0.44012       -0.79520
O         -0.31848       -1.30151       -1.60289
C         -1.93572       -0.27247       -0.19240
C         -3.00723       -0.96971       -0.77824
C         -4.29289       -0.85042       -0.24852
C         -4.51493       -0.03857        0.86860
C         -3.45115        0.65584        1.45522
C         -2.16355        0.54623        0.92443
H          2.45109        2.11870        0.41171
H          2.80144        1.10784        1.84784
H          3.78321        0.53121       -1.06187
H          4.81064        0.98315        0.35987
H          3.30767       -2.71215        0.54280
H          2.82480       -1.78942       -0.94087
H          1.86084       -1.25598        1.98041
H          0.83879       -1.87258        0.64734
H         -2.82153       -1.60103       -1.65220
H         -5.12253       -1.38560       -0.70852
H         -5.51958        0.05661        1.28137
H         -3.62767        1.29222        2.32128
H         -1.34517        1.10741        1.37907
