21
294486.log	Energy: -625429.7375841
C         -4.89356       -1.11729        0.05341
N         -3.84942       -0.07792       -0.08113
C         -4.30928        1.32349       -0.00069
C         -2.53294       -0.41640       -0.01789
C         -1.48369        0.48581        0.00536
C         -0.15425        0.03016       -0.00261
N          0.27620       -1.27594       -0.01816
N          1.58240       -1.43139       -0.01713
C          2.26603       -0.27760       -0.00055
S          1.22315        1.13397        0.01218
N          3.69990       -0.07073        0.00327
O          4.45256       -1.01953        0.01237
O          4.03383        1.10816       -0.00193
H         -5.64540       -1.00985       -0.74994
H         -5.41071       -1.04476        1.02721
H         -4.47064       -2.13434       -0.02848
H         -4.18150        1.73511        1.01724
H         -3.73619        1.95864       -0.70323
H         -5.37361        1.40965       -0.27635
H         -2.30487       -1.50327       -0.02367
H         -1.65604        1.55913        0.02873
