30
2973724.log	Energy: -511888.0923275
C         -4.98860       -1.03712        0.94965
C         -4.18671       -0.62125       -0.26485
C         -3.63621        0.82895       -0.20578
C         -2.15203        0.64232       -0.16612
C         -1.12038        1.54816       -0.08183
C          0.20569        1.04344       -0.06131
C          0.49628       -0.33933       -0.12920
C         -0.58514       -1.25850       -0.21714
C         -1.86797       -0.75486       -0.23141
O         -3.00656       -1.53190       -0.31840
C          1.84174       -0.89821       -0.12016
C          2.97586       -0.21978        0.13314
N          4.27926       -0.88634        0.11417
O          4.32518       -2.07940       -0.15636
O          5.25540       -0.19915        0.37284
O          1.31197        1.85495        0.02550
C          1.12257        3.29200        0.02737
H         -5.94782       -0.51131        1.00821
H         -4.44135       -0.85446        1.88462
H         -5.19869       -2.11722        0.92551
H         -4.71009       -0.83955       -1.21782
H         -3.95265        1.41982       -1.08552
H         -4.00501        1.37857        0.68098
H         -1.31621        2.61454       -0.02917
H         -0.40420       -2.33137       -0.26989
H          1.90263       -1.98044       -0.33937
H          3.03159        0.85121        0.37103
H          0.63577        3.61528       -0.89684
H          0.57031        3.60064        0.91922
H          2.16238        3.64762        0.06698
