30
2984048.log	Energy: -585001.1861908
C         -4.38914       -0.85340        0.83357
N         -3.64002       -0.09490       -0.20439
C         -4.31936        1.18248       -0.55323
C         -2.22544       -0.06667       -0.09073
C         -1.46642        0.88530       -0.81702
C         -0.07819        0.82883       -0.81395
C          0.60022       -0.15574       -0.07706
C         -0.14724       -1.11566        0.62783
C         -1.53635       -1.06560        0.64022
C          2.06795       -0.25761       -0.10066
S          2.77976       -1.66171       -0.66202
N          2.84842        0.75863        0.33439
C          4.32461        0.65770        0.25407
C          2.31695        2.00908        0.92108
H         -5.45930       -0.88368        0.56961
H         -4.29080       -0.43343        1.84676
H         -4.03679       -1.90092        0.85019
H         -4.30289        1.92596        0.25870
H         -3.84702        1.62873       -1.44702
H         -5.36949        0.97503       -0.81938
H         -1.96758        1.64770       -1.41001
H          0.49037        1.55120       -1.40139
H          0.37129       -1.91102        1.17113
H         -2.08591       -1.82394        1.19301
H          4.80985        1.59776        0.55056
H          4.69586       -0.15890        0.90520
H          4.64447        0.40813       -0.77888
H          2.37414        2.83877        0.19566
H          1.26215        1.89637        1.23283
H          2.89109        2.29122        1.82072
