26
298497.log	Energy: -427872.2495431
C          3.94343       -0.63266       -0.00315
C          3.75985        0.79517        0.00135
C          2.50729        1.32788        0.00413
C          1.35220        0.46101        0.00168
C          1.52269       -0.96217       -0.00109
C          2.87447       -1.47617       -0.00421
C          0.40069       -1.78447       -0.00144
C         -0.89699       -1.23327        0.00234
C         -2.05184       -2.06666        0.00568
C         -3.31387       -1.51760        0.00132
C         -3.50665       -0.12338       -0.00407
C         -2.41258        0.74755       -0.00215
C         -1.05655        0.19980        0.00063
N          0.07540        1.01521        0.00104
O         -0.04057        2.26534        0.00054
N         -2.62378        2.10783       -0.00173
H          4.96448       -1.01618       -0.00436
H          4.64400        1.43011        0.00345
H          2.32720        2.40783        0.00867
H          3.00296       -2.55781       -0.00711
H          0.51568       -2.86694       -0.00503
H         -1.91397       -3.14440        0.01189
H         -4.19398       -2.16513        0.00228
H         -4.51897        0.26753       -0.00785
H         -1.84251        2.76735       -0.00166
H         -3.55458        2.48341       -0.00593
