18
298514.log	Energy: -341512.8392985
C         -1.56558        2.05454       -0.04792
C         -0.33617        1.21981       -0.03201
C         -0.38490       -0.18148       -0.00174
N          0.68658       -1.00995        0.01180
C          1.92721       -0.42215        0.01304
C          2.08660        0.99330       -0.03423
C          0.95620        1.79311       -0.05325
N          3.02585       -1.28162        0.14993
N         -1.71267       -0.90216        0.01014
O         -2.31219       -0.91456        1.06657
O         -2.09410       -1.37182       -1.04094
H         -2.11242        1.95437       -0.99916
H         -1.35516        3.12471        0.08620
H         -2.26245        1.77047        0.75977
H          3.08157        1.43234       -0.03517
H          1.05589        2.88063       -0.08256
H          3.90147       -0.98291       -0.25098
H          2.84296       -2.27516        0.05052
