17
3000245.log	Energy: -530879.1822468
C         -0.46786       -1.84882        0.01258
C         -1.61595       -1.07078        0.00701
N         -1.55360        0.33934        0.01942
C         -0.33708        1.07605        0.00434
S         -0.49998        2.70728       -0.00517
C          0.83980        0.27843        0.00705
C          0.76433       -1.15399        0.00391
N          2.07824       -1.60688       -0.00367
C          2.91146       -0.43513       -0.00405
N          2.18484        0.68363        0.00225
N         -2.90159       -1.63781       -0.07843
H         -0.50227       -2.92907        0.00561
H         -2.42467        0.88834       -0.03935
H          2.38233       -2.56199       -0.01484
H          3.98928       -0.50462       -0.00731
H         -2.97553       -2.62696        0.12246
H         -3.69293       -1.10492        0.25413
