22
3000587.log	Energy: -592323.0649474
C         -2.37529        0.83458       -0.76312
C         -1.03947        0.47841       -0.89432
C         -0.55221       -0.65912       -0.22582
C         -1.40564       -1.44059        0.57435
C         -2.74396       -1.09296        0.70441
C         -3.24003        0.05555        0.04122
N         -4.56841        0.46271        0.24317
N          0.81964       -1.08837       -0.37605
C          1.91897       -0.34524       -0.15934
S          3.43318       -0.99522       -0.31649
C          1.86352        1.12318        0.21998
O          1.31840        1.97217       -0.46392
N          2.47833        1.42935        1.42113
H         -2.74641        1.72435       -1.26797
H         -0.36368        1.09216       -1.50573
H         -1.02137       -2.31818        1.09639
H         -3.40204       -1.69224        1.32866
H         -5.22634       -0.21958        0.58411
H         -4.96663        1.11647       -0.41238
H          0.94783       -2.07310       -0.65049
H          3.06498        0.76892        1.91112
H          2.57325        2.39881        1.68947
