29
3001378.log	Energy: -685895.8106295
C         -3.98382       -3.40606        0.00962
C         -3.64801       -1.92232       -0.09412
C         -2.18745       -1.66801        0.30738
N         -1.87919       -0.22082        0.17664
C         -0.61219        0.26059        0.04850
N          0.44886       -0.64755        0.00278
C          1.69725       -0.15485       -0.11680
C          1.95342        1.24482       -0.21382
N          0.94306        2.12834       -0.18115
C         -0.32632        1.67530       -0.05035
C         -1.43262        2.67595       -0.00825
O         -2.61441        2.33424        0.10088
N         -1.11662        4.01646       -0.09337
C          2.81859       -1.14005       -0.12874
S          4.30580       -0.69611        0.43287
N          2.59681       -2.38387       -0.61924
H         -3.36861       -4.01358       -0.66473
H         -5.03295       -3.58953       -0.25614
H         -3.83722       -3.78883        1.02701
H         -3.82845       -1.56518       -1.12915
H         -4.33434       -1.33550        0.55056
H         -2.00210       -1.98776        1.35947
H         -1.49601       -2.26649       -0.33037
H         -2.66793        0.45851        0.23162
H          2.97472        1.63948       -0.30419
H         -0.16577        4.34586       -0.17960
H         -1.85076        4.70711       -0.06300
H          1.67421       -2.70113       -0.88826
H          3.33419       -3.07922       -0.60641
