28
3010850.log	Energy: -475408.2865405
C         -3.74806        1.17681       -0.09620
C         -4.03729       -0.18880       -0.07967
C         -2.99536       -1.12075       -0.02022
C         -1.66484       -0.69039        0.01894
C         -1.36971        0.69033        0.01085
C         -2.42081        1.61678       -0.04785
C          0.03769        1.15474        0.07813
N          0.32902        2.41762       -0.07016
C          1.68957        2.83302        0.00110
C          2.73056        1.97674        0.09731
C          2.50118        0.53521        0.12582
C          3.45305       -0.40486       -0.04308
C          3.04770       -1.82237       -0.12170
N          1.82935       -2.22299       -0.30105
C          0.76889       -1.21031       -0.41751
C          1.07352        0.08587        0.37435
C         -0.58921       -1.74217        0.06692
O         -0.81176       -2.86833        0.42620
H         -4.55732        1.90639       -0.14459
H         -5.07169       -0.53122       -0.11191
H         -3.21170       -2.19374        0.00060
H         -2.19790        2.68860       -0.05818
H          1.79891        3.92210       -0.04762
H          3.76285        2.32312        0.12429
H          4.50575       -0.17384       -0.16942
H          3.84124       -2.58054       -0.05042
H          0.65269       -0.97350       -1.51729
H          1.00136       -0.14205        1.48024
