21
301724.log	Energy: -627972.5183087
C         -4.17368       -0.23935        0.91525
C         -3.53123       -0.59791       -0.40533
O         -2.06909       -0.52405       -0.28768
C         -1.48487        0.71772       -0.25546
O         -2.09816        1.75152       -0.33598
C         -0.01678        0.50910       -0.11855
C          0.86450        1.50374       -0.03038
C          2.35247        1.31626        0.11091
O          3.09528        2.26093        0.22186
N          2.87435       -0.00250        0.09419
C          2.17235       -1.10237        0.02932
S          0.37282       -1.19503       -0.08114
N          2.76356       -2.33880        0.08165
H         -3.74699       -0.81576        1.74696
H         -5.25454       -0.42893        0.89993
H         -4.03289        0.82653        1.15395
H         -3.65467       -1.66086       -0.68434
H         -3.84462        0.06763       -1.22947
H          0.55105        2.55928       -0.05851
H          3.77607       -2.40478        0.09775
H          2.25530       -3.18409       -0.11903
