29
3025911.log	Energy: -408379.2046000
C         -0.57238        3.02896        0.00916
C         -0.34392        1.55283       -0.00794
C          0.98723        1.06421       -0.00622
C          2.22476        1.81015       -0.00202
C          3.43405        1.16593        0.00224
C          3.55846       -0.27308        0.00269
C          2.42002       -1.01918       -0.00013
C          1.13831       -0.32939       -0.00415
C          0.08052       -1.26939       -0.00311
C          0.72252       -2.60111        0.00042
C          2.07818       -2.45850        0.00157
C         -1.22999       -0.78934       -0.00332
C         -2.37403       -1.66917        0.00216
C         -3.64043       -1.16969        0.00705
C         -3.85619        0.25109        0.00064
C         -2.80023        1.11094       -0.00651
C         -1.43104        0.64208       -0.00622
H         -1.54265        3.31661       -0.42169
H          0.19564        3.57396       -0.55746
H         -0.54950        3.41045        1.04206
H          2.17354        2.89757       -0.00123
H          4.35957        1.74134        0.00567
H          4.55134       -0.71469        0.00541
H          0.16011       -3.51657        0.00197
H          2.82255       -3.23194        0.00398
H         -2.18574       -2.74199        0.00406
H         -4.51035       -1.82446        0.01386
H         -4.88167        0.61547        0.00046
H         -2.96790        2.19016       -0.01501
