20
3027524.log	Energy: -357596.4733583
C         -3.34126       -0.00465       -0.44225
O         -2.21950        0.56250        0.30299
C         -1.06408       -0.09080        0.30495
C          0.05919        0.54100        0.93559
C          0.86100       -0.39879        1.72686
C          1.17447       -1.53538        1.05329
C          0.65896       -1.48289       -0.32095
C         -0.69981       -1.21111       -0.50649
C          1.61792       -0.87449       -1.31111
O          1.58014        0.55214       -1.00812
C          0.87943        1.33528        0.04826
O          1.17326        2.48134       -0.08969
H         -4.17230        0.63265       -0.10774
H         -3.50423       -1.04882       -0.16175
H         -3.15889        0.11489       -1.51423
H          1.20074       -0.11799        2.71495
H          1.77954       -2.35577        1.39785
H         -1.28152       -1.54838       -1.34543
H          2.67461       -1.16883       -1.18350
H          1.31604       -0.94460       -2.37045
