26
3029201.log	Energy: -417324.2482422
C         -4.75414       -0.43431        0.09086
C         -3.26311       -0.37117        0.05897
C         -2.61607        0.77855       -0.41173
C         -1.21636        0.85477       -0.45580
C         -0.45123       -0.24965       -0.01771
C         -1.10835       -1.40627        0.44581
C         -2.49692       -1.46982        0.48801
C          1.00348       -0.24886       -0.03119
C          1.84469       -1.15803       -0.55964
C          3.27423       -0.77991       -0.29150
O          4.30756       -1.31592       -0.58224
N          3.19286        0.45467        0.44996
C          1.83069        0.84916        0.65327
O          1.50279        1.84137        1.24490
C         -0.56297        2.09278       -0.96959
H         -5.20846        0.54063        0.31669
H         -5.13026       -1.14260        0.84166
H         -5.15087       -0.75681       -0.88419
H         -3.20836        1.62832       -0.74775
H         -0.51875       -2.25943        0.78526
H         -2.98834       -2.36837        0.85442
H          1.61249       -2.05411       -1.11434
H          3.99420        0.97119        0.79598
H         -0.12390        2.67293       -0.13534
H          0.24874        1.87538       -1.67641
H         -1.26293        2.76312       -1.48552
