29
3036225.log	Energy: -416142.8138802
C          3.00480        2.86608        0.55379
N          2.06217        1.86563        0.00519
C          2.39988        0.50779        0.01429
C          3.75713        0.08956        0.01636
C          4.07970       -1.25252       -0.11458
C          3.07741       -2.22968       -0.24109
C          1.74322       -1.84936       -0.22414
C          1.37906       -0.49287       -0.08418
N          0.03159       -0.02088       -0.02060
N         -0.90393       -0.85685       -0.07230
C         -2.25208       -0.33415       -0.02691
C         -3.16928       -1.06058        0.75577
C         -4.50984       -0.67446        0.76662
C         -4.93965        0.41684        0.00222
C         -4.02435        1.13222       -0.77568
C         -2.67658        0.76497       -0.79230
H          3.90662        2.92691       -0.08236
H          3.32399        2.64497        1.58641
H          2.52933        3.86112        0.54275
H          1.07816        2.08999        0.18019
H          4.54988        0.82740        0.10466
H          5.12749       -1.55719       -0.11917
H          3.35014       -3.27612       -0.34801
H          0.95336       -2.60130       -0.31408
H         -2.82956       -1.91379        1.34222
H         -5.22601       -1.22846        1.37235
H         -5.98834        0.70771        0.01409
H         -4.36073        1.98028       -1.37033
H         -1.95962        1.32022       -1.39575
