23
3036968.log	Energy: -605345.4582067
C          3.43723        0.15295       -0.86051
C          2.17678        0.03476        0.01407
C          1.45996       -1.31559       -0.37230
C         -0.01204       -1.29601       -0.14359
N         -0.91690       -2.29560       -0.10051
O         -2.15603       -1.83614        0.03979
S         -2.28801       -0.06012        0.08764
C         -0.63538       -0.03456       -0.03738
C          0.00176        1.25009       -0.10899
C          1.34332        1.30690       -0.16138
N         -1.01508        2.27231        0.02254
O         -2.30192        1.68460       -0.04304
C          2.56731       -0.03232        1.50275
H          4.06425       -0.74242       -0.79355
H          4.06065        1.00026       -0.55250
H          3.18255        0.30469       -1.91518
H          1.63751       -1.53753       -1.44779
H          1.93384       -2.15177        0.18129
H          1.90141        2.23052       -0.24846
H         -1.01377        2.97385       -0.72807
H          3.26732       -0.84840        1.70568
H          3.04396        0.89592        1.83695
H          1.68423       -0.18507        2.13503
