27
3044609.log	Energy: -430453.4886752
C          2.59237        1.39253        1.29056
C          2.30766        0.84520       -0.09991
C          2.23472       -0.66088       -0.10785
C          1.05276       -1.30633       -0.06502
C         -0.19148       -0.54814       -0.07620
C         -0.11931        0.83970       -0.33609
O          1.06917        1.47953       -0.57607
C         -1.27365        1.63843       -0.43207
C         -2.51880        1.04822       -0.24773
C         -2.59403       -0.32951        0.03200
C         -1.44872       -1.13508        0.11623
O         -3.75996       -1.04181        0.24699
C         -5.00957       -0.31596        0.19985
C          3.52946       -1.38649       -0.14500
O          4.59633       -0.82100       -0.25893
H          1.87490        1.02605        2.03410
H          2.53315        2.48904        1.29795
H          3.60000        1.10981        1.62394
H          3.02853        1.22887       -0.86350
H          0.97498       -2.39538       -0.04718
H         -1.17419        2.70111       -0.64843
H         -3.41821        1.65520       -0.31802
H         -1.55321       -2.19821        0.32592
H         -5.04652        0.43195        0.99697
H         -5.15889        0.12933       -0.78779
H         -5.73892       -1.11732        0.38085
H          3.46564       -2.48447       -0.06349
