23
308112.log	Energy: -449707.7152482
C         -3.65461        1.41090        0.00328
C         -2.42843        0.59421       -0.00665
N         -2.37517       -0.73421        0.00854
N         -0.87594       -1.14847        0.00965
C         -0.12770       -0.03894       -0.00653
C         -1.03519        1.17105       -0.02280
O         -0.73639        2.32875       -0.04781
C          1.33082        0.00592       -0.00451
C          1.99606        1.24703        0.03777
C          3.38972        1.29240        0.04503
C          4.13749        0.10949        0.00984
C          3.48141       -1.12323       -0.03439
C          2.08563       -1.18101       -0.04137
O         -0.64300       -2.33335        0.02110
O         -3.18727       -1.62819        0.01954
H         -4.53548        0.85583       -0.35758
H         -3.53681        2.30430       -0.63484
H         -3.88508        1.76940        1.02147
H          1.42490        2.17961        0.06443
H          3.89788        2.25607        0.07970
H          5.22525        0.15128        0.01709
H          4.05816       -2.04758       -0.06354
H          1.59093       -2.15480       -0.07463
