18
3093653.log	Energy: -520835.7161029
C          1.20406       -2.86984        0.03145
C          1.13030       -1.38173       -0.00562
C          2.23345       -0.58212       -0.03024
C          2.16507        0.85486       -0.04004
C          0.96823        1.52421       -0.00570
C         -0.27151        0.74480       -0.00413
N         -1.51429        1.20394       -0.01864
S         -2.56886       -0.13056       -0.00910
N         -1.36936       -1.33873        0.00380
C         -0.18016       -0.75199        0.00347
N          0.88011        2.92111        0.11554
H          0.41073       -3.33008       -0.57883
H          1.06113       -3.23943        1.05884
H          2.16419       -3.25466       -0.33227
H          3.23294       -1.02200       -0.04112
H          3.10717        1.39750       -0.05294
H         -0.01435        3.34459       -0.09768
H          1.66806        3.45942       -0.21052
