22
3094162.log	Energy: -573750.3691980
C         -0.59423       -1.71217       -0.01139
C          0.72975       -1.35932       -0.00590
C          1.13394        0.03416       -0.00605
C          0.18437        1.07185       -0.00191
C         -1.22233        0.70928       -0.00026
C         -1.57682       -0.69010       -0.00138
N         -2.95588       -1.14205        0.00442
O         -3.16587       -2.34345        0.00327
O         -3.85372       -0.29931        0.01196
N         -2.17507        1.66995        0.00317
N          0.64702        2.43972       -0.00166
O          1.85736        2.62992        0.00025
O         -0.17661        3.34817       -0.00227
N          2.51522        0.06987       -0.00085
C          3.05370       -1.29300        0.01052
O          4.22032       -1.57734        0.02510
N          1.92530       -2.14539       -0.05278
H         -0.91708       -2.76412       -0.02246
H         -1.93736        2.66989        0.00293
H         -3.17817        1.43295        0.00127
H          3.08538        0.92483        0.00032
H          1.94889       -3.13633        0.14344
