18
310049.log	Energy: -315933.8039392
C          1.25578        1.30034       -0.03034
C          0.17996        2.22633       -0.00939
N         -1.12355        1.89477        0.01303
C         -1.36161        0.53868        0.00908
C         -0.35581       -0.49246       -0.00934
C          1.00173       -0.07778       -0.03725
N          2.00861       -1.05603       -0.15620
N          3.37070       -0.76594        0.12921
C         -1.09034       -1.73159       -0.00836
N         -2.41732       -1.48104        0.01526
N         -2.59338       -0.12048        0.02886
H          2.26502        1.69172       -0.06102
H          0.39697        3.30416       -0.00923
H          1.77926       -2.00037        0.18739
H          3.79677       -0.34808       -0.70892
H          3.47744       -0.08084        0.88854
H         -0.69051       -2.73289       -0.02678
H         -3.51867        0.28629        0.03238
