27
3118069.log	Energy: -508585.8734261
C         -4.79326       -0.96297        0.03696
C         -4.44960       -0.02554       -0.94315
C         -3.17190        0.53750       -0.96443
C         -2.24242        0.15475        0.01678
C         -2.57778       -0.77995        1.00882
C         -3.85893       -1.33693        1.00800
N         -0.95007        0.80137        0.01847
C          0.25502        0.14814       -0.03588
C          1.49025        0.86943        0.04391
C          2.72073        0.16846        0.00662
C          2.74756       -1.21063       -0.11904
C          1.52287       -1.93547       -0.22478
C          0.32009       -1.27925       -0.18633
C          3.98579       -1.91745       -0.15321
N          4.98693       -2.49595       -0.18146
N          1.56259        2.31481        0.16410
O          0.50749        2.95463        0.16329
O          2.65925        2.83783        0.25718
H         -5.79147       -1.39971        0.04550
H         -5.18067        0.26674       -1.69806
H         -2.90315        1.26341       -1.73158
H         -1.85650       -1.05731        1.77714
H         -4.13112       -2.06325        1.77484
H         -0.96417        1.84616        0.04768
H          3.65514        0.74620        0.07887
H          1.56181       -3.02302       -0.34072
H         -0.61039       -1.84116       -0.29089
