33
311905.log	Energy: -362996.5493763
C         -4.03383       -0.33889        0.22275
C         -2.62476       -0.76416        0.05928
C         -1.46010       -0.02286       -0.01145
C         -1.29187        1.41268       -0.03299
C         -0.11992        2.10220        0.01500
C          1.24120        1.65522        0.08446
C          1.75920        0.40209        0.01502
C          1.00960       -0.82109       -0.11617
C         -0.33021       -0.99182       -0.11802
C         -0.94954       -2.33071       -0.17239
C         -2.29589       -2.19055       -0.04919
C          3.27982        0.25679        0.08558
C          3.69084       -0.57390        1.30718
C          3.82688       -0.34423       -1.21514
C         -2.54706        2.23911       -0.13842
H         -4.13126        0.50738        0.92102
H         -4.66238       -1.15041        0.61575
H         -4.47056       -0.03043       -0.73872
H         -0.19425        3.20058       -0.00167
H          1.95404        2.48862        0.19348
H          1.63011       -1.72745       -0.20595
H         -0.38427       -3.23647       -0.27875
H         -3.03822       -2.96722       -0.03270
H          3.73323        1.27621        0.20315
H          3.35802       -1.61466        1.23015
H          4.77897       -0.58795        1.42846
H          3.25704       -0.16239        2.22637
H          3.50431        0.23917       -2.08536
H          4.92174       -0.36256       -1.21224
H          3.48407       -1.37322       -1.36991
H         -3.09589        1.99362       -1.05900
H         -3.22017        2.04986        0.71212
H         -2.35070        3.31808       -0.15937
