27
3134521.log	Energy: -518784.8837658
C          4.49304       -1.29101        0.17887
C          3.04112       -1.08874        0.09056
C          2.29342        0.11804       -0.01392
C          0.88692       -0.28436       -0.07697
N          0.81223       -1.65822       -0.00181
N          2.11757       -2.10521        0.09668
N         -0.15490        0.60113       -0.23421
C         -1.54983        0.29698       -0.11457
C         -2.41116        1.39283        0.13784
C         -3.78125        1.19382        0.22630
C         -4.28617       -0.11015        0.06486
C         -3.45072       -1.20399       -0.18652
C         -2.07256       -0.99505       -0.28020
O         -5.65320       -0.22227        0.17231
N          2.79601        1.44512       -0.03897
O          4.00441        1.62427        0.02756
O          1.97758        2.36170       -0.12258
H          4.79646       -1.84820        1.07841
H          5.02121       -0.30956        0.22543
H          4.90245       -1.81442       -0.70002
H          2.27682       -3.10294        0.16048
H          0.10989        1.60639       -0.21983
H         -2.00541        2.39777        0.26215
H         -4.46895        2.01649        0.41755
H         -3.85707       -2.20379       -0.31074
H         -1.42008       -1.84851       -0.48492
H         -5.95902       -1.15282        0.04403
