28
31420.log	Energy: -498651.2342646
C         -4.03708        0.69883        0.02317
C         -4.03694       -0.69927        0.02441
C         -2.82690       -1.40036        0.00745
C         -1.61287       -0.70055       -0.00931
C         -1.61310        0.70105       -0.00965
C         -2.82716        1.40014        0.00607
C         -0.33024        1.46537       -0.02397
O         -0.36968        2.69163       -0.06699
C          0.94093        0.71802        0.00133
C          2.15907        1.41574        0.00662
C          3.40413        0.67922       -0.04422
C          3.40415       -0.67968       -0.04391
C          2.15891       -1.41556        0.00634
C          0.94085       -0.71838        0.00141
C         -0.33029       -1.46504       -0.02466
O         -0.36985       -2.69128       -0.06990
N          2.24859       -2.79904        0.13348
N          2.24867        2.79907        0.13140
H         -4.98034        1.24485        0.03629
H         -4.98019       -1.24525        0.03830
H         -2.81201       -2.49466        0.00701
H         -2.81237        2.49444        0.00488
H          4.34122        1.23780       -0.06923
H          4.34155       -1.23790       -0.06774
H          3.09495       -3.25951       -0.15374
H          1.39414       -3.35761        0.03638
H          1.39350        3.35750        0.03941
H          3.09413        3.26009       -0.15702
