35
314815.log	Energy: -467557.4707301
C         -0.27937        2.73051        1.58429
C         -0.05344        1.43075        0.80740
C         -1.17334        1.29297       -0.25931
O         -1.39911        2.16671       -1.06430
C         -1.98126        0.03621       -0.20056
C         -1.36470       -1.22087       -0.23230
C         -2.14686       -2.37794       -0.18485
C         -3.54009       -2.28153       -0.10316
C         -4.15535       -1.02559       -0.08055
C         -3.37867        0.13455       -0.13770
N          1.30265        1.42596        0.19134
C          1.47793        2.39120       -0.92581
C          1.98270        0.17790        0.08907
C          1.82029       -0.78900        1.11145
C          2.56337       -1.96606        1.08903
C          3.47653       -2.21492        0.05921
C          3.64279       -1.26361       -0.95073
C          2.90542       -0.07968       -0.94980
H         -0.41213        3.59227        0.91468
H          0.58266        2.95274        2.22899
H         -1.16772        2.66411        2.22155
H         -0.12084        0.57200        1.53400
H         -0.27808       -1.30409       -0.30522
H         -1.66862       -3.35616       -0.21334
H         -4.14660       -3.18574       -0.06249
H         -5.24047       -0.95077       -0.02626
H         -3.85442        1.11613       -0.14109
H          2.52278        2.74444       -0.93171
H          1.22884        1.97028       -1.91432
H          0.82608        3.27167       -0.78012
H          1.13004       -0.60251        1.93365
H          2.43411       -2.69846        1.88578
H          4.05340       -3.13469        0.04812
H          4.35379       -1.44919       -1.75622
H          3.05586        0.63327       -1.75513
