20
315030.log	Energy: -350428.1652155
C         -3.73720        0.24313        0.16709
C         -2.94193        1.31873       -0.27614
N         -1.60201        1.19044       -0.44987
C         -1.06034       -0.04251       -0.18978
C         -1.87099       -1.13213        0.25864
N         -3.19594       -0.97702        0.43401
N          0.32635       -0.15095       -0.47115
N          0.96420       -1.22963        0.06661
C          2.25772       -1.35204        0.01848
C          3.27937       -0.43208       -0.52537
N          3.60021        0.76427       -0.13459
N          2.88345        1.42574        0.82678
H         -4.81648        0.34154        0.31344
H         -3.36652        2.30570       -0.49452
H         -1.43541       -2.11765        0.46843
H          0.82539        0.72211       -0.71845
H          2.65560       -2.30453        0.41219
H          3.85768       -0.83987       -1.37233
H          2.46977        0.88985        1.59147
H          3.41630        2.22424        1.17966
