20
31594.log	Energy: -378446.2290859
C         -1.99519       -1.36598       -0.07744
C         -0.69411       -1.80363       -0.27532
C          0.39376       -0.90731       -0.28993
C          0.11737        0.45088       -0.08647
C         -1.18508        0.92780        0.10308
C         -2.25695        0.01546        0.10628
N         -3.58208        0.47713        0.20221
N          1.20015        1.47155       -0.05778
O          2.31654        1.12088        0.30294
O          0.91427        2.60950       -0.38492
C          1.78607       -1.45182       -0.50530
O          2.45819       -1.61684        0.74373
H         -2.81665       -2.08127       -0.07334
H         -0.50132       -2.87121       -0.41382
H         -1.36027        1.99951        0.22623
H         -3.72529        1.40415        0.57524
H         -4.28270       -0.18350        0.50291
H          1.77445       -2.48050       -0.91876
H          2.38810       -0.80231       -1.17103
H          2.68995       -0.72634        1.11817
