28
316022.log	Energy: -498576.3273216
C          3.68012       -0.13344        0.15313
C          3.67876       -1.54193       -0.14353
C          2.50796       -2.22391       -0.26172
C          1.24457       -1.53695       -0.07788
C          1.24104       -0.13355        0.25175
C          2.51271        0.54218        0.34282
C         -0.00374        0.49659        0.45051
C         -1.19698       -0.22528        0.24774
C         -2.51660        0.35196        0.33701
C         -3.62912       -0.41191        0.15083
C         -3.52020       -1.81687       -0.14227
C         -2.30072       -2.40772       -0.25820
C         -1.09376       -1.62571       -0.07802
N          0.10116       -2.25700       -0.22258
C         -0.05649        1.92563        0.91725
N         -0.16178        2.87384       -0.26690
O          0.88103        3.25473       -0.75744
O         -1.28130        3.19389       -0.61242
H          4.64170        0.37674        0.21167
H          4.63957       -2.03958       -0.27816
H          2.47007       -3.28948       -0.49834
H          2.51509        1.61691        0.53808
H         -2.60246        1.42488        0.52574
H         -4.62682        0.02379        0.20953
H         -4.44002       -2.38748       -0.27456
H         -2.18189       -3.46833       -0.49002
H         -0.92750        2.09215        1.59592
H          0.85354        2.18908        1.50891
