26
317963.log	Energy: -435718.1918602
C          3.97889       -1.05055        0.01637
C          2.53360       -0.68605        0.00332
N          1.61102       -1.60761        0.00209
C          0.27390       -1.20860       -0.00456
C         -0.75793       -2.19232       -0.00273
N         -2.05308       -1.86737        0.00208
C         -2.37422       -0.49147       -0.00598
N         -1.45461        0.53987       -0.00144
C         -0.13306        0.16753       -0.00547
N          0.86048        1.15235       -0.00789
C          2.25590        0.79472       -0.00276
O          3.08205        1.68110       -0.00153
C          0.47726        2.58694       -0.01108
N         -3.71413       -0.20522       -0.04356
C         -4.21284        1.18017        0.03870
H          4.49849       -0.58290        0.86752
H          4.48244       -0.70034       -0.89866
H          4.12915       -2.13918        0.08560
H         -0.49812       -3.26288       -0.00161
H         -0.07654        2.83501       -0.93309
H         -0.17322        2.81451        0.85169
H          1.38375        3.21927        0.04441
H         -4.38556       -0.96805        0.01261
H         -5.30663        1.19606       -0.08389
H         -3.94996        1.64624        1.00724
H         -3.75705        1.80707       -0.75339
