29
319447.log	Energy: -522015.9003386
C         -5.62455       -0.04027       -0.61230
C         -4.92334       -0.06699        0.72475
O         -3.54034       -0.55526        0.56294
C         -2.64280        0.25922       -0.02826
O         -2.85591        1.37477       -0.43551
C         -1.27186       -0.46808       -0.07311
O         -1.11394       -1.65432       -0.16077
N         -0.22268        0.47693        0.00754
C          1.13231        0.12490       -0.00495
C          2.29190        0.89045        0.02244
C          3.40094       -0.05439        0.00885
C          2.85339       -1.31191       -0.02512
O          1.42469       -1.22945       -0.03414
C          3.34087       -2.69249       -0.05313
C          4.82764        0.31862        0.02440
C          2.40314        2.29275        0.05830
N          2.50213        3.44628        0.08918
H         -5.21722        0.74435       -1.26921
H         -6.69856        0.15635       -0.49798
H         -5.51983       -0.99535       -1.14629
H         -4.88155        0.92157        1.21374
H         -5.31257       -0.83977        1.41521
H         -0.43180        1.48859       -0.00182
H          3.89917       -2.90752       -0.97883
H          4.00484       -2.90660        0.79973
H          2.50540       -3.41471       -0.00480
H          5.10810        0.85596       -0.89640
H          5.05641        0.99172        0.86687
H          5.48968       -0.55387        0.11128
