30
3235374.log	Energy: -483945.6109159
C         -4.87192        1.29156        0.30852
C         -3.55297        1.00143       -0.39555
N         -3.19061       -0.43277       -0.23498
C         -1.89781       -0.85896       -0.10199
N         -1.73482       -2.24575        0.12847
C         -0.48727       -2.70563        0.22391
C          0.65251       -1.85332        0.11015
C          0.40833       -0.45391       -0.11038
N         -0.86210        0.05043       -0.22093
N          1.50673        0.41018       -0.22430
C          2.85500       -0.11159       -0.13771
O          3.79934        0.63483       -0.25446
C          2.94218       -1.58127        0.09434
N          1.93175       -2.39137        0.21216
C          1.25238        1.84748       -0.44252
C          0.77616        2.69731        0.73247
C          2.16918        2.88940        0.17784
H         -5.70796        0.71535       -0.10693
H         -5.13635        2.35341        0.20926
H         -4.82191        1.07466        1.38410
H         -3.62344        1.22394       -1.48670
H         -2.73733        1.65096        0.00816
H         -3.94586       -1.10702       -0.10481
H         -0.34981       -3.78498        0.39948
H          3.96697       -1.97368        0.16669
H          0.82369        2.02056       -1.44219
H          0.00706        3.44650        0.56121
H          0.64526        2.23818        1.71089
H          3.03873        2.57481        0.75948
H          2.41501        3.77854       -0.40054
