17
324820.log	Energy: -309996.3280175
C         -2.86195       -0.11359       -0.00193
C         -2.22935       -1.31319        0.00523
C         -0.82197       -1.58976        0.00274
C          0.16302       -0.66676       -0.00219
C          0.15946        0.81965        0.00388
C          1.45698        1.23924        0.00599
C          2.35572        0.08620        0.00082
O          3.52763       -0.12631       -0.00139
O          1.48498       -1.09974       -0.00640
C         -1.02301        1.62925        0.00003
C         -2.31299        1.21655       -0.00486
H         -3.96263       -0.13081       -0.00528
H         -2.85788       -2.21860        0.01056
H         -0.52887       -2.65032        0.00114
H          1.84061        2.24493        0.00790
H         -0.82310        2.71168       -0.00136
H         -3.08443        2.00605       -0.00881
