34
325008.log	Energy: -454364.7955965
C         -0.35964        3.27364        0.27214
C         -0.12460        1.81247        0.01927
N         -1.04604        0.89240       -0.11868
N         -2.38283        1.21615       -0.11653
C         -3.28595        0.09896       -0.06148
C         -4.58840        0.33680        0.42321
C         -5.52839       -0.69502        0.38595
C         -5.18396       -1.95489       -0.11085
C         -3.88447       -2.18509       -0.57897
C         -2.93098       -1.16914       -0.56030
C          1.28271        1.38118       -0.09446
C          1.71313        0.14830        0.21268
C          3.11941       -0.27197        0.10967
C          3.65745       -1.11670        1.09722
C          4.98962       -1.52675        1.01892
C          5.79391       -1.10815       -0.04671
C          5.26066       -0.27620       -1.03552
C          3.92980        0.14290       -0.96017
H         -0.87226        3.44099        1.22921
H         -0.96844        3.72450       -0.52576
H          0.57587        3.84778        0.31666
H         -2.68593        2.04429        0.41426
H         -4.87089        1.30917        0.81486
H         -6.53900       -0.51253        0.74983
H         -5.92127       -2.75279       -0.13523
H         -3.61416       -3.16840       -0.96381
H         -1.91910       -1.34611       -0.92702
H          1.96614        2.15913       -0.44249
H          1.01948       -0.62245        0.56893
H          3.03513       -1.44784        1.92695
H          5.40274       -2.17727        1.78822
H          6.83097       -1.43139       -0.10652
H          5.88391        0.04729       -1.86768
H          3.51697        0.78376       -1.73751
