23
3272046.log	Energy: -854738.7428920
C         -4.66972        1.47946        0.02604
C         -5.46676        0.37637       -0.01044
S         -4.49481       -1.06448       -0.03523
C         -2.99045       -0.16594        0.00961
C         -3.25930        1.17592        0.03753
C         -1.73716       -0.87941        0.01151
C         -0.53915       -0.26203        0.01847
C          0.72049       -0.99644        0.02213
C          1.92200       -0.40510        0.00827
C          2.22278        1.08006       -0.01270
O          1.40273        1.96030       -0.02474
N          3.63571        1.33207       -0.01269
C          4.37780        0.24677       -0.00463
S          3.42638       -1.31050        0.01415
N          5.73342        0.17439       -0.02754
H         -5.02644        2.50164        0.04511
H         -6.54173        0.32511       -0.02614
H         -2.50877        1.95732        0.06599
H         -1.80630       -1.97418        0.00881
H         -0.45871        0.83662        0.01860
H          0.64089       -2.09220        0.03889
H          6.28644        1.02270       -0.01357
H          6.22071       -0.70287        0.04431
