28
3272900.log	Energy: -506332.2611877
C          2.56558        2.64585       -0.42390
C          3.79766        2.19547        0.07195
C          3.98544        0.84014        0.32048
C          2.94359       -0.07405        0.06885
C          1.69461        0.36777       -0.41653
C          1.52934        1.74607       -0.65997
C          0.57887       -0.55297       -0.67435
C         -0.67777       -0.30647       -0.27729
C         -1.78010       -1.24589       -0.53845
N         -3.05446       -1.07823       -0.32821
N         -3.47945        0.10567        0.22523
C         -4.80232        0.28311        0.30809
N         -5.82730       -0.44109       -0.34659
N         -5.25455        1.36917        1.10987
N          3.22626       -1.49798        0.34848
O          4.16515       -1.74170        1.09194
O          2.53329       -2.35210       -0.18009
H          2.41862        3.70877       -0.62479
H          4.60393        2.90381        0.26096
H          4.93955        0.47097        0.71532
H          0.57342        2.10572       -1.04595
H          0.85110       -1.47535       -1.20744
H         -0.95160        0.60081        0.27405
H         -1.50179       -2.22595       -0.96596
H         -6.73595       -0.47339        0.09864
H         -5.54842       -1.34612       -0.72262
H         -4.50899        1.96391        1.47016
H         -6.01037        1.92034        0.71796
