18
328353.log	Energy: -341598.2529570
C         -2.47226       -0.72413        0.27572
C         -2.47331        0.72333       -0.27390
N         -1.24890        1.45865        0.17936
C         -0.08894        0.68623        0.01880
C         -0.08846       -0.68647       -0.02037
N         -1.24843       -1.45875       -0.18092
C          1.32806       -1.19531       -0.02138
O          1.77545       -2.30957       -0.02390
N          2.13089        0.00012        0.00516
C          1.32783        1.19571        0.02197
O          1.77473        2.31020        0.01832
H         -2.54776       -0.69711        1.38623
H         -3.35821       -1.27238       -0.11313
H         -2.55428        0.69795       -1.38399
H         -3.35781        1.27069        0.11995
H         -1.18076        2.41031       -0.18985
H         -1.18019       -2.41088        0.18707
H          3.14501        0.00024        0.00805
