26
3298944.log	Energy: -438084.5283923
C          1.03073        2.40721       -0.09336
N          0.59645        1.00914       -0.06711
C         -0.72038        0.56625       -0.02560
C         -0.66407       -0.85099        0.01725
C         -1.89365       -1.67797        0.06086
O         -1.93206       -2.88255        0.09654
C         -3.16277       -0.85776        0.05813
C         -3.19734        0.47576        0.01581
C         -1.97088        1.33679       -0.03966
O         -2.02433        2.54724       -0.09382
N          0.64317       -1.27848        0.01416
C          1.41128       -0.13946       -0.03699
N          2.83975       -0.00259       -0.10588
C          3.45157       -0.17705        1.24856
C          3.42378       -0.95000       -1.10385
H          0.19506        3.07271       -0.40107
H          1.87462        2.53693       -0.79892
H          1.37344        2.73238        0.90658
H         -4.07372       -1.46428        0.09726
H         -4.13609        1.03886        0.01827
H          3.33796       -1.19019        1.66801
H          4.52703        0.05403        1.17706
H          3.00153        0.53934        1.95415
H          3.27735       -2.01559       -0.85833
H          2.96547       -0.76594       -2.09025
H          4.50327       -0.74892       -1.18958
