23
3307413.log	Energy: -428996.3484045
C          1.31029       -1.15142       -0.60564
C          2.69560       -1.24572       -0.63364
C          3.44629       -0.23226       -0.00922
C          2.84248        0.86188        0.62655
C          1.45011        0.93963        0.63383
C          0.67174       -0.06355        0.02866
C         -0.79519        0.00159        0.05028
C         -1.56873       -1.07260        0.28044
C         -3.05518       -1.02744        0.23178
O         -3.74811       -1.94625        0.60410
C         -3.65107        0.22852       -0.33290
C         -2.90575        1.31253       -0.54432
C         -1.44818        1.34722       -0.19917
O         -0.85609        2.39704       -0.10423
O          4.80573       -0.39360       -0.06973
H          0.71024       -1.92429       -1.08987
H          3.20788       -2.07324       -1.12055
H          3.43765        1.63707        1.09923
H          0.96031        1.79558        1.11018
H         -1.15183       -2.05503        0.52176
H         -4.72179        0.18108       -0.54644
H         -3.30228        2.24693       -0.95047
H          5.29322        0.34412        0.37518
