27
331667.log	Energy: -438636.3376303
C         -1.53220       -0.55644       -0.65026
C         -2.75540       -1.02910       -0.91140
C         -3.98571       -0.37065       -0.38377
O         -5.09128       -0.83589       -0.56064
C         -3.77134        0.89738        0.36909
C         -2.54819        1.37300        0.62668
C         -1.32107        0.65534        0.18328
N         -0.19589        1.17807        0.56154
C          1.08848        0.64635        0.26613
C          1.54188       -0.65597        0.62861
C          2.86985       -1.03524        0.36248
C          3.74273       -0.13297       -0.27186
C          3.30730        1.17541       -0.59940
C          2.00253        1.54849       -0.31861
N          5.03525       -0.54444       -0.63057
N          0.66845       -1.59882        1.21347
H         -0.62911       -1.03427       -1.04629
H         -2.93189       -1.91477       -1.52457
H         -4.68375        1.40326        0.68990
H         -2.38371        2.30498        1.17799
H          3.21035       -2.03204        0.62244
H          3.98439        1.87734       -1.07533
H          1.66059        2.55876       -0.56142
H          5.72039        0.16318       -0.84064
H          5.41632       -1.36611       -0.19103
H         -0.12384       -1.23372        1.72620
H          1.10274       -2.37669        1.69107
