21
3317412.log	Energy: -726785.8368964
C          0.98183       -0.40651        1.21843
C          0.79989        0.73831        0.47518
S          2.20188        1.09773       -0.47325
C          3.03283       -0.29077        0.12966
C          2.26723       -1.00110        1.02562
N          4.37675       -0.55482       -0.33350
O          4.97010       -1.51395        0.12446
O          4.81417        0.22619       -1.16458
C         -0.35509        1.61929        0.40727
N         -1.61797        1.31980        0.30643
N         -2.04771        0.01900        0.33611
C         -3.40409       -0.16112       -0.01890
N         -4.49278        0.62860        0.25363
N         -5.54074       -0.11088       -0.21475
N         -5.14007       -1.30841       -0.73748
N         -3.85310       -1.37946       -0.65100
H          0.25204       -0.81503        1.90945
H          2.59445       -1.90614        1.53145
H         -0.14486        2.70770        0.45248
H         -1.42779       -0.74722        0.00943
H         -6.50448        0.21367       -0.14960
