20
333752.log	Energy: -637980.4925077
C         -4.01186       -1.28146        0.00035
O         -2.59839       -0.93381        0.00117
C         -2.29138        0.40802        0.00911
O         -3.12082        1.28033        0.01771
C         -0.80698        0.51796        0.00301
C         -0.15698        1.68116        0.00663
C          1.34060        1.81920       -0.00460
O          1.87788        2.89897       -0.03429
N          2.13096        0.63757        0.03983
C          1.67613       -0.58511        0.01417
S         -0.05649       -1.06075       -0.02345
N          2.52201       -1.68439       -0.08845
N          3.93091       -1.55465        0.05985
H         -3.98332       -2.37543       -0.06348
H         -4.50330       -0.83257       -0.86907
H         -4.47129       -0.93644        0.93220
H         -0.69195        2.64452        0.01943
H          2.20598       -2.60348        0.25242
H          4.31605       -1.16735       -0.81635
H          4.17801       -0.86951        0.79263
