33
3347757.log	Energy: -466824.5348279
C          1.44698       -1.52022       -1.11508
N          2.60321       -0.79791       -0.57742
C          3.88444       -1.33948       -0.49107
C          4.72605       -0.36622        0.06251
C          3.94802        0.78864        0.30819
C          2.62052        0.51370       -0.08247
C          1.51791        1.45410       -0.02026
C          0.24186        1.26211        0.35014
C         -0.75960        2.38738        0.32043
C         -1.93020        2.03074       -0.60728
C         -2.51070        0.68010       -0.29600
C         -3.81934        0.37449       -0.70375
C         -4.36557       -0.87977       -0.42802
C         -3.61781       -1.84243        0.26135
C         -2.31835       -1.54494        0.66896
C         -1.75382       -0.29035        0.38451
C         -0.35290       -0.02027        0.83370
O          0.23686       -0.80446        1.54923
H          1.75166       -2.21955       -1.91207
H          0.70179       -0.82536       -1.54123
H          0.95274       -2.10556       -0.31034
H          4.12071       -2.33553       -0.81129
H          5.77177       -0.47810        0.26476
H          4.29710        1.70811        0.73098
H          1.83490        2.47111       -0.30716
H         -1.13203        2.57570        1.35081
H         -0.29585        3.33939       -0.00451
H         -2.70900        2.81790       -0.54192
H         -1.58701        2.03648       -1.66537
H         -4.41223        1.11731       -1.23349
H         -5.38207       -1.11060       -0.74813
H         -4.05172       -2.81568        0.48224
H         -1.72308       -2.28001        1.21968
