30
3351113.log	Energy: -486276.7683398
C         -4.17368       -0.55487        0.03629
C         -3.29796       -1.36063        1.00398
C         -1.95491       -1.74984        0.36193
N         -1.27007       -0.49315       -0.07813
C         -2.06441        0.24951       -1.10716
C         -3.40972        0.66490       -0.49231
C          0.13431       -0.49204       -0.15380
C          0.87802        0.70782        0.00360
C          2.27831        0.69796        0.05247
C          2.97358       -0.50786       -0.05804
C          2.25574       -1.71696       -0.20566
C          0.87439       -1.70651       -0.25072
C          4.40024       -0.53012       -0.01247
N          5.55589       -0.55585        0.02759
N          0.23017        2.02360        0.22742
O          0.26561        2.47378        1.35462
O         -0.26403        2.58604       -0.73576
H         -5.09953       -0.22855        0.54720
H         -4.50018       -1.19417       -0.80603
H         -3.10889       -0.76176        1.91909
H         -3.82545       -2.27420        1.33531
H         -2.11689       -2.44822       -0.48717
H         -1.32454       -2.27204        1.11491
H         -2.23156       -0.39588       -1.99907
H         -1.50990        1.14472       -1.46937
H         -4.00931        1.20344       -1.25003
H         -3.23541        1.38879        0.33025
H          2.82842        1.63614        0.18825
H          2.80310       -2.65962       -0.29255
H          0.34213       -2.64764       -0.38848
