27
336443.log	Energy: -402456.4697869
C          4.29842        0.92714       -0.80069
C          4.88591       -0.15635       -0.14133
C          4.07027       -0.97964        0.65185
N          2.74076       -0.75872        0.81450
C          2.17968        0.30413        0.17062
C          2.93049        1.16647       -0.65048
C          0.70307        0.53736        0.40107
N         -0.07627       -0.61539       -0.12763
C         -1.47835       -0.55800       -0.07723
C         -2.23972       -1.72237       -0.36798
C         -3.62466       -1.60507       -0.42901
C         -4.25024       -0.37942       -0.20011
C         -3.43159        0.73318        0.10654
N         -2.05869        0.66525        0.16339
N         -3.98931        1.97557        0.44727
H          4.90283        1.58105       -1.42959
H          5.94815       -0.36215       -0.24135
H          4.47962       -1.84644        1.18429
H          2.45168        1.99718       -1.16382
H          0.51055        0.70012        1.49067
H          0.35515        1.46662       -0.11485
H          0.34648       -1.52671        0.07361
H         -1.75222       -2.67111       -0.55177
H         -4.23062       -2.48377       -0.65740
H         -5.32723       -0.28766       -0.23279
H         -4.89992        2.19581        0.07871
H         -3.35964        2.76546        0.50204
