33
3369082.log	Energy: -453479.6625963
C          2.17765       -1.88386       -1.68135
C          3.37786       -1.17854       -1.04779
N          2.90495       -0.15082       -0.06072
C          3.99390        0.22670        0.90326
C          4.19346       -0.89148        1.92696
C          2.35787        1.06165       -0.75242
C          1.30576        1.73419        0.15473
N          0.15955        0.82682        0.40090
C         -1.08357        1.09170       -0.16054
O         -1.32227        2.14271       -0.73767
C         -2.11430        0.02181        0.06324
C         -3.41349        0.32700        0.05877
C         -4.44108       -0.71731        0.26744
O         -4.32225       -1.89993        0.49342
O         -5.69395       -0.15822        0.17259
H          1.51375       -2.29836       -0.91193
H          2.50299       -2.71026       -2.32233
H          1.57582       -1.20300       -2.29459
H          3.99282       -1.92903       -0.50047
H          4.03217       -0.74862       -1.83649
H          4.95540        0.45831        0.39581
H          3.68530        1.15440        1.43597
H          4.62810       -1.79058        1.47516
H          4.85641       -0.56912        2.73674
H          3.23608       -1.19088        2.37463
H          3.13657        1.80380       -1.02810
H          1.87240        0.75635       -1.70738
H          1.74701        2.00522        1.14106
H          0.94318        2.67902       -0.31840
H          0.41794       -0.09777        0.74783
H         -1.75381       -1.00100        0.21432
H         -3.78865        1.34752       -0.10906
H         -6.42151       -0.82555        0.30551
