26
337601.log	Energy: -497898.6886199
C         -3.29917       -1.46908        0.00330
C         -3.66555       -0.16820        0.00704
C         -2.69042        0.94746        0.00032
O         -3.02281        2.12121       -0.00249
C         -1.28536        0.52504       -0.00260
C         -0.11718        1.25133       -0.00248
C          0.29795        2.61254       -0.00252
C          1.63654        2.92346        0.00100
N          2.65115        1.96273        0.00340
C          2.32787        0.59113        0.00122
C          0.98871        0.27257       -0.00269
N          0.47509       -1.03815       -0.00496
C         -0.97511       -0.91841       -0.00291
C         -1.90947       -1.89384       -0.00180
C          1.36203       -2.16232       -0.00108
O          0.92197       -3.29078       -0.00049
C          2.79613       -1.78180        0.00124
C          3.26776       -0.51199        0.00271
H         -4.04797       -2.26489        0.00550
H         -4.70988        0.14064        0.01250
H         -0.47571        3.38806       -0.00461
H          1.97961        3.96663        0.00269
H          3.62505        2.24355        0.00850
H         -1.66344       -2.95363       -0.00185
H          3.46971       -2.64503        0.00245
H          4.33734       -0.29834        0.00512
