33
3386286.log	Energy: -500210.0628765
C          3.10114        1.75958       -1.00950
C          2.40623        0.59982       -1.71563
C          3.03209       -0.76562       -1.39773
C          3.01924       -1.12005        0.09737
N          1.64508       -1.20100        0.64906
C          1.14834       -0.18947        1.45583
O          1.83522        0.72972        1.87353
C         -0.32604       -0.33497        1.83868
C         -1.18303        0.40654        0.86260
C         -1.19682        1.81389        0.93714
C         -1.99535        2.57032        0.08575
C         -2.81338        1.93898       -0.86552
C         -2.80745        0.55471       -0.96614
C         -1.98132       -0.21551       -0.11709
N         -2.01279       -1.67399       -0.32448
O         -1.07901       -2.34949        0.09391
O         -2.96762       -2.13960       -0.92320
H          2.96227        1.70102        0.08348
H          2.69629        2.72374       -1.33320
H          4.17846        1.77115       -1.20220
H          1.33268        0.59190       -1.44082
H          2.43654        0.75939       -2.81217
H          2.50914       -1.55037       -1.97828
H          4.08315       -0.78139       -1.75037
H          3.51453       -2.10327        0.26184
H          3.59995       -0.35992        0.67645
H          1.01778       -1.89057        0.22826
H         -0.61220       -1.40660        1.94232
H         -0.45308        0.08610        2.86433
H         -0.55022        2.30822        1.67041
H         -1.98632        3.66039        0.15586
H         -3.44618        2.53527       -1.52302
H         -3.43953        0.04535       -1.70347
