28
3387659.log	Energy: -477824.3142241
C          4.30473        1.47442        0.07239
C          3.17967        0.74187        0.02147
C          1.87024        1.41067        0.00452
C          0.70064        0.72902       -0.00567
C          0.70067       -0.72887       -0.00048
C          1.87012       -1.41074       -0.00341
C          3.17980       -0.74226       -0.01480
C          4.30522       -1.47434       -0.06155
C         -0.58409       -1.48791        0.00887
O         -0.59670       -2.70437        0.01772
C         -1.85551       -0.70258        0.00600
C         -3.07117       -1.39823        0.01679
C         -4.28260       -0.69832        0.01517
C         -4.28241        0.69857        0.00139
C         -3.07087        1.39834       -0.00960
C         -1.85536        0.70203       -0.00737
C         -0.58440        1.48805       -0.02045
O         -0.59606        2.70434       -0.04228
H          5.29799        1.04764        0.09460
H          4.31120        2.55585        0.09684
H          1.87147        2.50865        0.00166
H          1.87141       -2.50864        0.00062
H          4.31202       -2.55570       -0.08724
H          5.29860       -1.04723       -0.07874
H         -3.05966       -2.49299        0.02708
H         -5.22559       -1.24552        0.02388
H         -5.22492        1.24668       -0.00125
H         -3.05858        2.49310       -0.02055
