25
3389267.log	Energy: -463548.5712534
C         -4.59040       -0.01566        0.31951
C         -3.94726       -1.26781        0.23333
C         -2.57093       -1.36906        0.04917
C         -1.85463       -0.17171       -0.04624
C         -2.48975        1.10762        0.03877
C         -3.87444        1.17534        0.22394
C         -1.45374        2.11947       -0.10074
C         -0.25336        1.48668       -0.26202
N         -0.45007        0.05820       -0.23454
C          0.54543       -0.94222       -0.37500
O          0.26315       -2.11869       -0.33867
C          1.93278       -0.42458       -0.59618
C          2.82094       -0.31747        0.39106
C          4.20064        0.15016        0.11773
O          4.69028        0.57448       -0.90247
O          4.95175        0.05498        1.26394
H         -5.66956        0.01474        0.46309
H         -4.54570       -2.17581        0.31300
H         -2.06223       -2.33174       -0.01940
H         -4.37368        2.13950        0.29084
H         -1.63671        3.17801       -0.07756
H          0.73255        1.89904       -0.39490
H          2.17017       -0.18787       -1.64359
H          2.60744       -0.56443        1.43850
H          5.89511        0.35054        1.12948
