29
339683.log	Energy: -441770.0791962
C         -4.65743        1.52965       -0.37992
N         -4.07805        0.38446        0.37563
C         -5.06586       -0.71838        0.53681
C         -2.74806        0.00402        0.03868
C         -2.26378       -1.29137        0.34481
C         -0.92537       -1.60982        0.14384
C         -0.02437       -0.65390       -0.35755
C         -0.50272        0.62830       -0.67483
C         -1.84111        0.95593       -0.48637
C          1.37884       -1.01760       -0.56088
C          2.41345       -0.27700       -0.14402
C          2.52626        0.98280        0.62184
C          3.82712        1.27556        0.79163
C          4.64874        0.21698        0.13972
O          5.81754        0.01552        0.00683
O          3.72883       -0.72874       -0.42567
H         -5.59231        1.84959        0.11033
H         -4.87464        1.29980       -1.43476
H         -3.96813        2.39205       -0.34487
H         -5.21095       -1.32187       -0.37289
H         -4.73912       -1.38451        1.35517
H         -6.04137       -0.30187        0.83718
H         -2.93062       -2.04893        0.75047
H         -0.56924       -2.61228        0.38554
H          0.17800        1.37154       -1.09076
H         -2.18323        1.95823       -0.73825
H          1.56494       -1.96305       -1.08522
H          1.65507        1.52089        0.96793
H          4.29273        2.10395        1.29891
