24
339916.log	Energy: -390945.2203931
C         -4.53098       -0.05828       -0.02737
C         -3.80517       -1.08798        0.58054
C         -2.40928       -1.04134        0.60799
C         -1.73506        0.04357        0.02423
C         -2.46495        1.08098       -0.57888
C         -3.86045        1.02513       -0.60399
C         -0.27182        0.11367        0.04760
C          0.54965        1.16822        0.42460
C          1.90850        0.73498        0.26513
N          3.10574        1.34770        0.48377
C          4.19516        0.60864        0.21081
C          4.13103       -0.73831       -0.27827
N          2.97171       -1.38148       -0.50655
C          1.85847       -0.63575       -0.23114
N          0.51307       -0.99789       -0.34960
H         -5.61922       -0.09811       -0.04797
H         -4.32870       -1.92695        1.03743
H         -1.84796       -1.83628        1.09710
H         -1.94095        1.92529       -1.02750
H         -4.42632        1.82867       -1.07423
H          0.24804        2.13443        0.78275
H          5.16802        1.08360        0.37932
H          5.05161       -1.29624       -0.48485
H          0.17119       -1.87385       -0.70286
