30
3420784.log	Energy: -511990.0651614
C          3.74233       -2.93098        0.06577
C          3.23230       -1.52701        0.05332
C          1.84765       -1.30169       -0.08721
C          1.34120       -0.00358       -0.09075
C          2.25318        1.08930        0.05192
C          3.61780        0.87052        0.19042
C          4.10469       -0.44568        0.19054
O          1.62445        2.32535        0.03936
C          2.46067        3.50114        0.14406
N         -0.04757        0.30990       -0.23352
C         -1.08140       -0.62905       -0.34303
O         -0.90351       -1.83211       -0.36213
C         -2.43989        0.00444       -0.44710
C         -3.48054       -0.50510        0.21344
C         -4.82425        0.10740        0.10055
O         -5.18029        1.11252       -0.46939
O         -5.73656       -0.65574        0.78962
H          4.83414       -2.98799       -0.02557
H          3.31850       -3.52264       -0.75891
H          3.46627       -3.44048        1.00127
H          1.16790       -2.15626       -0.19488
H          4.31411        1.69697        0.29901
H          5.17451       -0.61274        0.30003
H          2.96580        3.51864        1.11432
H          3.17022        3.53979       -0.68773
H          1.72141        4.30919        0.06907
H         -0.26941        1.31285       -0.20030
H         -2.53076        0.87625       -1.10559
H         -3.41400       -1.39484        0.85482
H         -6.66080       -0.28643        0.73775
