12
342966.log	Energy: -710073.3462410
C          0.01621        0.93680       -0.13437
S         -1.44866       -0.08019       -0.31192
O         -2.20361        0.00715        0.92590
C          1.19208        0.29568        0.04092
S          1.06261       -1.47564        0.09062
O         -0.53486       -1.52398       -0.43012
N          2.46224        0.81857        0.30674
N         -0.27845        2.31846       -0.31217
H          2.57030        1.81273        0.15029
H          3.24519        0.30068       -0.07570
H         -0.82873        2.67438        0.47437
H          0.56149        2.88610       -0.37572
