28
34327.log	Energy: -384632.1490892
C         -3.51912        0.06734        0.32816
C         -2.85322       -1.20091       -0.23043
C         -1.35579       -1.19756       -0.09589
C         -0.65327       -0.00416       -0.04704
C         -1.37087        1.28282       -0.02610
C         -2.71143        1.31191        0.12528
C         -0.56561        2.50517       -0.13133
C          0.77961        2.47719       -0.11260
C          1.52499        1.21916       -0.01945
C          2.90484        1.18579        0.03600
C          3.59285       -0.05604        0.09613
C          2.90106       -1.24355        0.08714
C          1.47337       -1.24796        0.02824
C          0.78092       -0.01301       -0.00807
C          0.71967       -2.46456       -0.00063
C         -0.65000       -2.43836       -0.07005
H         -3.69180       -0.05287        1.42190
H         -4.52459        0.18206       -0.12409
H         -3.29031       -2.09161        0.26284
H         -3.09638       -1.30412       -1.31154
H         -3.27114        2.24390        0.14925
H         -1.11266        3.44469       -0.21093
H          1.36834        3.39245       -0.17260
H          3.48530        2.10634        0.03341
H          4.68083       -0.04746        0.14521
H          3.42637       -2.19608        0.12466
H          1.25766       -3.41091        0.02863
H         -1.21959       -3.36590       -0.10304
