26
343757.log	Energy: -451041.3430893
C          2.89439       -1.80773        0.00241
C          1.51651       -2.54769       -0.00130
C          0.47012       -1.46263       -0.00034
C         -0.88503       -1.48698        0.00013
C         -1.62044       -0.24037        0.00021
C         -0.96313        1.01706        0.00076
C          0.50022        1.04707       -0.00044
C          1.33822        2.20222       -0.00137
C          2.71222        2.06529       -0.00108
C          3.35187        0.78859       -0.00047
C          2.56785       -0.33688        0.00040
C          1.14447       -0.18788       -0.00003
N         -1.64671        2.20160        0.00188
N         -3.05940       -0.36080       -0.00026
O         -3.56368       -1.47328       -0.00125
O         -3.73805        0.67463        0.00042
H          3.48926       -2.08416        0.89114
H          3.49623       -2.08637       -0.88076
H          1.41620       -3.20085        0.88356
H          1.41877       -3.19634       -0.88983
H         -1.46201       -2.41693       -0.00024
H          0.89109        3.19377       -0.00204
H          3.34593        2.95261       -0.00142
H          4.43809        0.73606       -0.00061
H         -1.16670        3.08493        0.00020
H         -2.67378        2.22030        0.00192
