24
3442803.log	Energy: -551224.6072487
C         -1.02402        3.09372       -0.08896
N         -1.49207        1.69671       -0.05585
C         -0.70775        0.58260       -0.01281
C         -1.35405       -0.72782       -0.00323
C         -0.61708       -1.92637       -0.00399
C          0.76010       -1.85760       -0.00908
C          1.44886       -0.57926       -0.00222
C          0.72129        0.61388        0.00133
N          1.51139        1.86293        0.03589
O          1.96855        2.26804       -1.01303
O          1.62175        2.41934        1.11336
N          2.83309       -0.80507        0.01460
C          3.00062       -2.14874        0.00830
N          1.78452       -2.84204       -0.00271
N         -2.80013       -0.90026        0.00833
O         -3.52461        0.09538        0.00965
O         -3.24002       -2.03925        0.01608
H         -0.38456        3.30073       -0.96883
H         -0.47067        3.37039        0.83307
H         -1.89638        3.76896       -0.15827
H         -2.52814        1.59441       -0.04380
H         -1.14732       -2.88979        0.00096
H          3.96705       -2.64795        0.01320
H          1.62919       -3.83323       -0.02250
