29
344315.log	Energy: -465361.9027116
C         -3.62268       -2.15314       -0.28461
C         -2.36242       -2.50537        0.27933
C         -1.43242       -1.53479        0.55723
C         -1.71209       -0.15975        0.28224
C         -2.97237        0.19275       -0.26759
C         -3.92279       -0.84096       -0.54863
C         -3.27396        1.56597       -0.53364
C         -2.35372        2.54613       -0.26207
C         -1.08053        2.21654        0.27726
C         -0.76608        0.89777        0.54429
N          0.46741        0.59099        1.19467
C          1.57379        0.31615        0.58554
C          1.78457        0.24666       -0.88602
C          2.97578       -0.05028       -1.41251
C          4.17088       -0.33015       -0.55822
O          5.24965       -0.60023       -1.03749
C          3.95083       -0.25787        0.91482
C          2.75939        0.03839        1.44369
H         -4.34092       -2.94450       -0.49704
H         -2.15509       -3.55379        0.48818
H         -0.47327       -1.79950        1.00304
H         -4.88563       -0.56097       -0.97363
H         -4.24782        1.81464       -0.95230
H         -2.57812        3.59510       -0.45642
H         -0.37079        3.01505        0.48688
H          0.90694        0.45026       -1.50796
H          3.15493       -0.10918       -2.48865
H          4.83421       -0.46448        1.52381
H          2.58951        0.09397        2.52483
