29
344314.log	Energy: -465368.0197298
C          4.44035        0.52845        0.46373
C          4.18638       -0.06646       -0.77697
C          2.98357       -0.73423       -1.00923
C          2.02361       -0.79926        0.01906
C          2.27156       -0.20107        1.26889
C          3.48495        0.45482        1.48246
N          0.86192       -1.59513       -0.18929
C         -0.35744       -1.18863       -0.30895
C         -1.36989       -2.28025       -0.42419
C         -2.65304       -2.07745       -0.11531
C         -3.15681       -0.74742        0.32512
O         -4.23925       -0.61256        0.85374
C         -2.25151        0.41035        0.03880
C         -2.77597        1.70548        0.09060
C         -1.96954        2.80175       -0.23464
C         -0.64301        2.59677       -0.61609
C         -0.10803        1.30249       -0.65432
C         -0.90008        0.20212       -0.31089
H          5.38259        1.04394        0.63706
H          4.93453       -0.01333       -1.56774
H          2.79060       -1.21316       -1.96741
H          1.52941       -0.26167        2.06236
H          3.68606        0.91359        2.45045
H         -0.98386       -3.25498       -0.74203
H         -3.40685       -2.86685       -0.15606
H         -3.82032        1.84865        0.38583
H         -2.38015        3.81032       -0.19246
H         -0.01385        3.44643       -0.88433
H          0.93178        1.16868       -0.95898
