36
34554.log	Energy: -455100.6751369
C         -1.98802        2.19672       -1.40583
C         -2.61508        1.05333       -0.67947
C         -1.81661        0.02565       -0.11694
C         -2.41493       -1.04116        0.59223
C         -3.81252       -1.07410        0.71691
C         -4.59846       -0.06366        0.16354
C         -4.00647        0.99578       -0.52715
C         -1.59724       -2.13285        1.19718
N         -0.40902        0.08968       -0.43475
N          0.42079       -0.07355        0.48337
C          1.82516       -0.01520        0.13369
C          2.45009       -1.04595       -0.60226
C          3.84405       -1.01856       -0.75524
C          4.59743        0.01855       -0.20407
C          3.97406        1.04545        0.50805
C          2.58446        1.04262        0.68701
C          1.91715        2.14107        1.44629
C          1.65183       -2.15262       -1.20815
H         -1.36018        1.83656       -2.23840
H         -1.32617        2.77479       -0.74447
H         -2.72350        2.89282       -1.82601
H         -4.28582       -1.89376        1.25414
H         -5.68269       -0.10076        0.27062
H         -4.62955        1.78020       -0.95130
H         -2.20876       -2.93869        1.62123
H         -0.92036       -2.59041        0.46079
H         -0.96260       -1.74265        2.01116
H          4.34062       -1.81026       -1.31283
H          5.67939        0.02818       -0.33028
H          4.57137        1.85089        0.93010
H          2.62674        2.87244        1.85155
H          1.20630        2.69000        0.81139
H          1.33957        1.73841        2.29467
H          2.26917       -2.85547       -1.78178
H          1.12689       -2.73521       -0.43705
H          0.88768       -1.76041       -1.89860
