25
3465817.log	Energy: -437466.1531626
C         -0.90876       -2.11316       -0.30430
C          0.25907       -1.41742       -0.47462
C          0.30096        0.01624       -0.37659
C         -0.90857        0.68813       -0.04787
C         -2.11356       -0.04814        0.12202
C         -2.12732       -1.42641       -0.00164
N         -3.34659       -2.16996        0.04775
N         -0.99706        2.12481        0.13535
O          0.03293        2.79712        0.01407
O         -2.07659        2.61927        0.41750
N          1.46469        0.70949       -0.63755
C          2.77369        0.05607       -0.82582
C          3.49027       -0.24179        0.50437
O          3.05206       -1.49362        1.03787
H         -0.92346       -3.20075       -0.40609
H          1.18438       -1.95368       -0.70608
H         -3.02835        0.51202        0.34784
H         -4.11271       -1.67811        0.49359
H         -3.24973       -3.09480        0.44912
H          1.48591        1.73212       -0.47087
H          2.66168       -0.89506       -1.40177
H          3.40205        0.72779       -1.45678
H          4.57420       -0.40956        0.34330
H          3.34982        0.55869        1.25162
H          2.14708       -1.41229        1.40850
