32
3467954.log	Energy: -507825.5014538
C          3.27319       -0.27116        1.17915
C          3.58615        1.10009        0.56712
C          2.36605        1.77423       -0.06666
C          1.69693        0.93048       -1.16017
N          0.80007       -0.12601       -0.59763
C          1.42592       -1.41959       -0.19317
C          2.92383       -1.32590        0.12254
C         -0.50119        0.16895       -0.30218
N         -0.83653        1.52478       -0.39630
C         -2.06486        1.92329        0.04415
N         -3.01665        1.07907        0.66845
C         -2.72726       -0.21588        0.66722
C         -1.52889       -0.76208        0.09785
N         -1.53461       -2.17842       -0.12703
O         -2.34803       -2.84968        0.49968
O         -0.76011       -2.66186       -0.94573
N         -2.41729        3.24155       -0.09479
H          2.44866       -0.17715        1.91276
H          4.15164       -0.61499        1.76101
H          3.99628        1.76444        1.35455
H          4.39358        0.99877       -0.18459
H          2.66826        2.74708       -0.50388
H          1.61925        2.02653        0.71524
H          2.45438        0.43073       -1.80381
H          1.09755        1.59291       -1.83160
H          1.26138       -2.15843       -1.02268
H          0.89620       -1.81850        0.70334
H          3.50567       -1.14630       -0.80335
H          3.24907       -2.32736        0.47716
H         -3.46918       -0.90679        1.11379
H         -1.77597        3.90565       -0.49746
H         -3.29584        3.57430        0.27394
