26
347773.log	Energy: -427420.9662158
C         -2.34261       -1.71345        1.23542
N         -1.50117       -1.71502       -0.00005
C         -2.34572       -1.71560       -1.23321
C         -0.58268       -0.58647       -0.00085
C         -0.96632        0.79356       -0.00123
C         -0.00712        1.81709       -0.00513
C          1.34636        1.48689       -0.00508
C          1.73246        0.13867       -0.00173
C          0.77362       -0.89587       -0.00084
N          3.16158       -0.20297        0.00097
O          3.96344        0.72036        0.00763
O          3.46845       -1.38436       -0.00316
O         -2.31931        0.99296        0.00261
C         -2.81449        2.35845        0.00202
H         -2.96252       -2.62398        1.24086
H         -3.00240       -0.83627        1.33423
H         -1.68396       -1.75857        2.11781
H         -3.02596       -0.85318       -1.31914
H         -1.68948       -1.73396       -2.11858
H         -2.94347       -2.64096       -1.24786
H         -0.30106        2.86366       -0.00702
H          2.11296        2.27104       -0.00616
H          1.10089       -1.94606        0.00042
H         -2.48251        2.88354        0.90234
H         -2.50579        2.87157       -0.91347
H         -3.90109        2.19771        0.01727
