27
3478173.log	Energy: -511094.2269695
C          4.29240        0.22726       -0.01701
C          4.05052       -1.14742       -0.01589
C          2.73491       -1.62739       -0.00166
C          1.66051       -0.72981        0.00477
C          1.90525        0.65482        0.00282
C          3.22033        1.12920       -0.00721
C          0.78002        1.64440        0.00953
O          0.99843        2.84015        0.01666
C         -0.60494        1.10098        0.00567
C         -0.85702       -0.28592        0.00529
C          0.27235       -1.27022        0.01205
O          0.05568       -2.46921        0.02129
C         -2.17540       -0.75160        0.00057
C         -3.24397        0.19520       -0.00881
C         -2.99246        1.57347       -0.00544
C         -1.67047        2.01394        0.00161
O         -4.54554       -0.18957       -0.01942
N         -2.59084       -2.14011        0.00013
H          5.31627        0.60351       -0.02569
H          4.88352       -1.85123       -0.02418
H          2.53510       -2.70374        0.00254
H          3.39998        2.20961       -0.00758
H         -3.82824        2.27380       -0.00873
H         -1.44864        3.08866        0.00277
H         -4.62727       -1.20031       -0.02188
H         -2.20954       -2.62233        0.82243
H         -2.18611       -2.62961       -0.80654
