26
34809.log	Energy: -430316.2786432
C         -3.95317       -0.70673        0.00025
C         -3.80914        0.72574       -0.00062
C         -2.56865        1.28716       -0.00067
C         -1.38616        0.46503        0.00034
C         -1.52273       -0.96106        0.00091
C         -2.85982       -1.51769        0.00153
C         -0.38392       -1.76976        0.00010
C          0.91194       -1.21944       -0.00143
C          2.07456       -2.06219       -0.00242
C          3.33483       -1.52598        0.00095
C          3.53490       -0.11994        0.00221
C          2.43785        0.71520       -0.00029
C          1.08326        0.20949       -0.00060
C         -0.08339        0.99917       -0.00018
O          0.12103        2.36045       -0.00060
O          2.73113        2.04564       -0.00226
H         -4.96253       -1.11841       -0.00023
H         -4.71078        1.33430       -0.00193
H         -2.43707        2.37083       -0.00223
H         -2.95776       -2.60263        0.00310
H         -0.49473       -2.85280        0.00126
H          1.92614       -3.13944       -0.00537
H          4.21576       -2.17055        0.00298
H          4.53927        0.29516        0.00369
H         -0.72887        2.87788        0.00627
H          1.93107        2.64299        0.01487
