18
348669.log	Energy: -349786.7905941
C          2.85542        0.27413        0.00773
C          2.69121       -1.16540       -0.00191
N          1.50436       -1.75306       -0.00718
C          0.37279       -0.91823       -0.00365
C          0.56117        0.51343        0.00226
N          1.81042        1.09144        0.00924
C         -0.64113        1.33795       -0.00137
N         -1.88195        0.77043       -0.00438
C         -1.94185       -0.62633       -0.00151
N         -0.86625       -1.49400       -0.00811
N         -3.19817       -1.18319        0.02064
N         -0.57013        2.70499       -0.00792
H          3.85677        0.71435        0.01341
H          3.57697       -1.81699       -0.00502
H         -4.01708       -0.59875       -0.01661
H         -3.30709       -2.18579       -0.01486
H          0.32551        3.17233        0.00301
H         -1.40883        3.26525       -0.00535
