21
348658.log	Energy: -428266.4004494
C         -3.41353        0.87343        0.00448
C         -3.68636       -0.51614        0.00202
C         -2.66636       -1.46237       -0.00303
C         -1.36733       -0.95218       -0.00398
C         -1.06068        0.44042       -0.00022
C         -2.11458        1.36661        0.00378
C          0.37795        0.51138       -0.00218
C          0.83901       -0.78971       -0.00659
O         -0.18622       -1.72613       -0.00859
C          2.27467       -1.18972        0.00137
O          2.67916       -2.32403        0.01570
C          3.18368        0.00667       -0.00491
C          2.75349        1.27043       -0.00357
C          1.29488        1.66290        0.00032
O          0.95189        2.82158        0.00267
H         -4.25340        1.56928        0.00684
H         -4.72601       -0.84714        0.00376
H         -2.85865       -2.53206       -0.00547
H         -1.89953        2.43642        0.00586
H          4.24834       -0.25066       -0.00848
H          3.44152        2.12244       -0.00573
