29
3499991.log	Energy: -483731.1937014
C         -3.70552       -2.21812        0.02618
C         -3.03174       -1.86127        1.19868
C         -2.15611       -0.77251        1.20198
C         -1.95037       -0.03796        0.02414
C         -2.62729       -0.39593       -1.15194
C         -3.50196       -1.48392       -1.14697
C         -1.02841        1.11993        0.02367
C         -1.56589        2.41136        0.00439
C         -0.73365        3.53404        0.00798
C          0.65227        3.36671        0.02996
C          1.21638        2.08902        0.04634
C          0.38298        0.95903        0.04539
N          0.88263       -0.37824        0.09572
C          2.21265       -0.74791       -0.01870
N          3.36795       -0.01151        0.12723
N          4.36081       -0.94727       -0.01705
N          3.86700       -2.19589       -0.23167
N          2.57597       -2.13357       -0.24949
H         -4.38737       -3.06677        0.02643
H         -3.19022       -2.43245        2.11261
H         -1.63443       -0.48984        2.11600
H         -2.46866        0.17634       -2.06486
H         -4.02718       -1.76149       -2.06003
H         -2.64994        2.53631       -0.01069
H         -1.16592        4.53217       -0.00445
H          1.30671        4.23892        0.03459
H          2.30381        1.99394        0.06636
H          0.20877       -1.13796       -0.08777
H          5.34397       -0.69872        0.05183
