23
3499768.log	Energy: -436759.8317642
C         -4.07187       -0.01126        0.02614
C         -2.76466       -0.74361       -0.00928
O         -2.65787       -1.95146       -0.03401
N         -1.63545        0.12375        0.00577
C         -0.27542       -0.26018        0.00102
C          0.75635        0.70933       -0.00490
C          2.11557        0.31140       -0.00850
C          2.45940       -1.03679       -0.00719
C          1.42336       -2.01675       -0.00200
C          0.10199       -1.63476        0.00178
N          3.81496       -1.44764        0.10046
N          0.51789        2.15529       -0.00508
O         -0.64749        2.55987       -0.00964
O          1.47750        2.90621       -0.00407
H         -4.88474       -0.67216       -0.32218
H         -4.10062        0.89075       -0.60083
H         -4.33207        0.29268        1.05252
H         -1.81727        1.15348        0.02565
H          2.88723        1.08966       -0.00228
H          1.68464       -3.07714        0.01125
H         -0.68729       -2.40373        0.00783
H          4.02347       -2.35533       -0.29435
H          4.49945       -0.75923       -0.18639
