28
3517348.log	Energy: -438841.0480959
C          4.63045       -1.24042       -0.48719
C          3.24119       -0.89378       -0.05139
C          2.55841        0.09272       -0.66114
C          1.19732        0.52306       -0.33265
C          0.11928       -0.38986       -0.20251
C         -1.13217        0.13436        0.12229
N         -1.37798        1.45354        0.30126
C         -0.28097        2.29126        0.11625
N          1.00575        1.86232       -0.17740
N         -0.50116        3.65247        0.19440
C         -2.31054       -0.78238        0.34774
O         -2.61997       -1.35505        1.36197
O         -2.99432       -0.91379       -0.83249
C         -4.16951       -1.77163       -0.81787
C          2.71179       -1.70601        1.08410
H          4.89728       -0.80770       -1.46099
H          4.77430       -2.32680       -0.56776
H          5.36962       -0.86927        0.23936
H          3.02337        0.68921       -1.45473
H          0.27282       -1.45134       -0.36371
H         -1.38142        3.99005        0.55412
H          0.28920        4.27902        0.21159
H         -3.84087       -2.79369       -1.02614
H         -4.68626       -1.71264        0.14713
H         -4.77870       -1.36160       -1.63087
H          2.27936       -2.65189        0.72513
H          3.49578       -1.96725        1.80845
H          1.92201       -1.18769        1.64896
