18
352272.log	Energy: -520835.3676042
C         -3.44565       -1.14456       -0.00591
C         -2.04613       -0.62057       -0.01096
C         -0.97745       -1.47256        0.01633
C          0.35520       -0.94220        0.01574
N          1.50325       -1.60913        0.01648
S          2.78293       -0.48207       -0.00876
N          1.82243        0.92213       -0.02286
C          0.55308        0.54717       -0.00257
C         -0.63846        1.40152       -0.00671
C         -1.88031        0.81322       -0.02867
N         -0.45852        2.78007        0.07957
H         -3.49616       -2.22231       -0.21396
H         -4.07257       -0.64238       -0.75592
H         -3.91872       -0.98302        0.97470
H         -1.08811       -2.55431        0.03541
H         -2.78020        1.42189       -0.03954
H          0.46260        3.16231       -0.08284
H         -1.22562        3.38728       -0.15368
