29
3526568.log	Energy: -654843.9029931
C         -3.87831        2.23590        0.26180
C         -2.78411        1.99442       -0.57399
C         -2.34464        0.68622       -0.79664
C         -3.00744       -0.38690       -0.18486
C         -4.11206       -0.14494        0.64734
C         -4.54069        1.16472        0.87256
C         -2.57123       -1.78824       -0.40862
N         -1.38013       -2.27325       -0.42934
C         -0.17732       -1.53920       -0.22281
C          0.66801       -1.30306       -1.32505
C          1.90555       -0.69717       -1.12399
C          2.31801       -0.33508        0.17091
C          1.46771       -0.57178        1.26513
C          0.22362       -1.16715        1.07587
C          3.61866        0.33199        0.34926
S          4.08272        1.60635       -0.60025
N          4.45326       -0.11768        1.32696
H         -4.21534        3.25676        0.43715
H         -2.26648        2.82755       -1.04976
H         -1.48642        0.50590       -1.44590
H         -4.63112       -0.97557        1.12386
H         -5.39330        1.35318        1.52379
H         -3.39856       -2.50654       -0.57588
H          0.35560       -1.60128       -2.32526
H          2.55907       -0.49754       -1.97908
H          1.76939       -0.26764        2.26798
H         -0.43757       -1.34589        1.92190
H          4.23970       -0.91373        1.90559
H          5.35504        0.32127        1.47488
