28
3532982.log	Energy: -531868.2259908
C          4.26720       -0.01219       -0.88348
N          3.08430       -0.58849       -0.20772
C          3.35889       -1.57043        0.86206
C          1.84749       -0.04283       -0.39876
C          0.71633       -0.45783        0.26238
C         -0.60549        0.04104        0.07155
C         -0.95216        1.42220        0.00758
C         -2.28351        1.85083       -0.14998
C         -3.31436        0.92742       -0.28553
C         -3.02300       -0.43592       -0.21956
C         -1.70641       -0.87108       -0.02099
N         -1.51366       -2.33200        0.03760
O         -0.62194       -2.79704        0.72716
O         -2.30228       -3.01085       -0.60559
N          0.03079        2.49850        0.19974
O         -0.31445        3.44537        0.88821
O          1.11810        2.42537       -0.35577
H          4.97227        0.42384       -0.15276
H          3.98601        0.79045       -1.58777
H          4.79580       -0.79432       -1.45766
H          2.57669       -2.35714        0.86989
H          4.32790       -2.06946        0.70290
H          3.36825       -1.09237        1.85813
H          1.78177        0.72743       -1.19435
H          0.78662       -1.29658        0.97167
H         -2.50324        2.92626       -0.16183
H         -4.34035        1.26313       -0.43432
H         -3.82706       -1.17726       -0.32491
