30
3545668.log	Energy: -509439.0696363
C          3.78311       -2.03564        0.03917
C          4.07045       -0.70027        0.74409
C          2.91503        0.23724        0.36212
N          1.78930       -0.65186       -0.04727
C          2.27138       -2.05836       -0.23876
C          0.48305       -0.29469       -0.21782
C         -0.03777        1.03235       -0.07675
C         -1.43428        1.22499        0.08919
C         -2.33681        0.18158       -0.02270
C         -1.83256       -1.10842       -0.36411
C         -0.48568       -1.33764       -0.47063
C         -3.76780        0.42958        0.17780
N         -4.77821       -0.37837        0.28441
O         -4.49172       -1.73540        0.19494
N          0.73826        2.25323       -0.17471
O          0.32110        3.24930        0.40324
O          1.75809        2.25503       -0.85810
H          4.09071       -2.89482        0.65956
H          4.35539       -2.11012       -0.90406
H          4.12275       -0.83704        1.83990
H          5.04347       -0.27966        0.43554
H          3.20374        0.90416       -0.49105
H          2.60835        0.88562        1.20891
H          2.05199       -2.40119       -1.27244
H          1.74137       -2.73203        0.47042
H         -1.78363        2.24663        0.29644
H         -2.54330       -1.92445       -0.54446
H         -0.14273       -2.33134       -0.74804
H         -4.05521        1.49875        0.26345
H         -5.40670       -2.16118        0.29839
