26
354910.log	Energy: -495499.7021846
C         -4.61501       -0.04551        0.00114
C         -4.06498        1.25170        0.00141
C         -2.68557        1.46244        0.00013
C         -1.87875        0.32711       -0.00093
C         -2.42521       -1.00344       -0.00142
C         -3.81173       -1.18510       -0.00082
N         -1.39069       -1.98549       -0.00201
C         -0.23703       -1.33243       -0.00168
N         -0.46249        0.14804       -0.00219
C          0.55022        1.11471        0.00199
O          0.40873        2.31443        0.00760
N          1.88651        0.51368       -0.00447
C          3.00325        1.39041       -0.00685
C          4.26950        0.89978       -0.00336
C          4.50060       -0.52258        0.00408
C          3.45818       -1.38900        0.00520
C          2.08113       -0.91917        0.00051
N          1.07666       -1.77854        0.00039
H         -5.69968       -0.15726        0.00178
H         -4.73620        2.11099        0.00265
H         -2.25039        2.46164        0.00023
H         -4.23343       -2.18990       -0.00233
H          2.76124        2.46450       -0.01311
H          5.12814        1.57150       -0.00641
H          5.53454       -0.87713        0.00870
H          3.58834       -2.47714        0.00926
