28
3550801.log	Energy: -501024.8441611
C         -4.69844        0.67085       -0.04223
C         -4.70547       -0.71398        0.06125
C         -3.49470       -1.44888        0.11070
C         -2.31293       -0.74786        0.05493
C         -2.30919        0.67598       -0.04995
C         -3.48315        1.39530       -0.10011
C         -0.88315        1.09079       -0.07992
C         -0.03309        0.01755       -0.00117
C         -0.87618       -1.22839        0.07895
O         -0.51851       -2.37543        0.13756
C          1.41890        0.00118        0.00857
C          2.12671       -1.19931       -0.24708
C          3.51287       -1.22371       -0.25530
C          4.21098       -0.02805        0.00172
C          3.54902        1.17451        0.26684
C          2.15078        1.17174        0.26882
O          5.58182       -0.13365       -0.02865
O         -0.62835        2.40802       -0.17726
H         -5.63956        1.22060       -0.08037
H         -5.65183       -1.25389        0.10423
H         -3.50523       -2.53667        0.18980
H         -3.48304        2.48128       -0.18133
H          1.56775       -2.12490       -0.43285
H          4.06955       -2.13868       -0.45259
H          4.09819        2.08678        0.47220
H          1.62992        2.10967        0.48860
H          6.02560        0.72326        0.18021
H          0.37130        2.59460       -0.19719
