26
3561734.log	Energy: -521042.3309794
C          4.29229        0.55626        0.00131
C          3.23785        1.51165       -0.00344
C          1.95128        1.04294       -0.00258
C          1.63754       -0.35700        0.00336
C          0.18158       -0.50721       -0.00322
C         -0.41907        0.79596       -0.00052
C          0.66002        1.83738       -0.00158
O          0.53616        3.03201        0.00206
C         -1.78626        0.96342       -0.00092
C         -2.58668       -0.20459       -0.00061
C         -2.01483       -1.48520       -0.00813
C         -0.62317       -1.64354       -0.01005
N         -4.05312       -0.06905        0.00324
O         -4.51815        1.05821        0.00306
O         -4.71363       -1.09677        0.00758
C          2.68212       -1.28767        0.00911
C          4.03165       -0.79652        0.01091
N          2.45838       -2.66414       -0.05507
H          5.32346        0.91644       -0.00091
H          3.45740        2.57888       -0.00821
H         -2.25056        1.95804       -0.00145
H         -2.67179       -2.36504       -0.01498
H         -0.19295       -2.64296       -0.02942
H          4.85276       -1.51219        0.00800
H          1.53431       -3.01379        0.15850
H          3.20949       -3.28992        0.18770
