34
3565350.log	Energy: -487730.3354937
C         -1.04633        2.51735       -0.79804
C         -0.82304        1.08541       -0.41582
N         -1.73267        0.16679       -0.21281
N         -3.05673        0.39520       -0.42934
C         -3.98017       -0.60199        0.24968
C         -3.64700       -2.01276       -0.24859
C         -3.84556       -0.51682        1.77982
C         -5.40337       -0.19913       -0.18002
C          0.58643        0.64242       -0.25586
C          1.04363       -0.51714       -0.90700
C          2.36794       -0.92475       -0.76629
C          3.23785       -0.16483        0.03217
C          2.79244        0.99254        0.69211
C          1.46687        1.39203        0.54644
N          4.64313       -0.58806        0.18154
O          4.99926       -1.59819       -0.40556
O          5.37155        0.09693        0.88352
H         -1.46282        3.09791        0.03606
H         -1.73558        2.60170       -1.65142
H         -0.11699        3.01606       -1.10778
H         -3.39611        1.36558       -0.36247
H         -2.62899       -2.30781        0.04255
H         -4.33986       -2.75584        0.15563
H         -3.68580       -2.06892       -1.34333
H         -4.07107        0.48121        2.16454
H         -4.52296       -1.21980        2.27628
H         -2.82706       -0.77204        2.10228
H         -5.68788        0.79611        0.17380
H         -5.51075       -0.20943       -1.27230
H         -6.13987       -0.90506        0.22145
H          0.34965       -1.10253       -1.51514
H          2.73740       -1.82595       -1.26760
H          3.48981        1.56532        1.31299
H          1.10816        2.28205        1.06350
