29
3568736.log	Energy: -486186.5491109
C          4.68795       -1.42850        0.70912
C          3.23093       -0.99034        0.79318
C          2.60900       -0.87532       -0.60732
N          1.21650       -0.37567       -0.54477
C          0.85313        0.98261       -0.31822
C          1.65489        2.11699       -0.34270
C          1.03107        3.35604       -0.12633
C         -0.34199        3.44761        0.11089
C         -1.14918        2.29909        0.14217
C         -0.56244        1.05738       -0.07053
C         -1.10773       -0.29810       -0.09661
C         -2.37082       -0.74090        0.06991
C         -2.73259       -2.13092        0.02400
N         -3.04815       -3.24163       -0.00607
C         -3.48173        0.13564        0.31332
N         -4.38249        0.83229        0.51094
C          0.08478       -1.22764       -0.36242
O          0.11222       -2.42701       -0.44219
H          4.79579       -2.39252        0.19624
H          5.11938       -1.54970        1.71113
H          5.30793       -0.69878        0.17580
H          2.65311       -1.71585        1.40247
H          3.15551       -0.02254        1.32815
H          3.20392       -0.19643       -1.25735
H          2.58997       -1.87455       -1.10725
H          2.72429        2.05574       -0.52496
H          1.63732        4.26426       -0.14555
H         -0.79889        4.42341        0.27474
H         -2.21866        2.39640        0.33258
