26
357028.log	Energy: -458901.2587201
C         -0.79070       -1.04422       -0.61250
C         -0.50263        0.30749       -0.33834
C         -1.57333        1.17998        0.12361
N         -2.84598        0.72131        0.30716
C         -3.01377       -0.61582        0.04696
N         -2.03135       -1.51082       -0.42711
N         -4.25566       -1.17507        0.33277
N         -1.06104        2.47423        0.31243
C          0.25187        2.40595       -0.00785
N          0.64056        1.12239       -0.42977
C          1.98744        0.65736       -0.76302
C          2.74070        0.11648        0.47956
C          2.19875       -1.24025        0.95995
O          2.12541       -2.06937       -0.21948
O          4.12013        0.00696        0.13806
H         -0.01836       -1.74179       -0.97277
H         -5.03372       -0.54401        0.47294
H         -4.47498       -2.07363       -0.07236
H          0.93725        3.24548        0.03005
H          1.92491       -0.14663       -1.53964
H          2.58154        1.48718       -1.21349
H          2.74583        0.85881        1.31367
H          2.87767       -1.69828        1.70052
H          1.17969       -1.15233        1.38289
H          2.13812       -3.01500        0.03431
H          4.26210       -0.74660       -0.48330
