29
357477.log	Energy: -519521.8275724
C          2.36243       -0.72064        1.45889
C          1.10353       -1.34705        0.82091
N          0.25586       -0.23625        0.26708
C          0.99864        0.53147       -0.78946
C          2.25839        1.15360       -0.15695
N          3.10561        0.11625        0.48564
C          4.21371       -0.40582       -0.20956
O          4.63117        0.14259       -1.21455
C         -1.07982       -0.60060       -0.05944
C         -2.14290        0.34246       -0.08958
C         -3.46358       -0.11549       -0.27951
C         -3.71109       -1.47004       -0.44430
C         -2.62051       -2.36196       -0.38818
N         -1.35162       -1.94785       -0.20212
N         -1.98194        1.78705        0.16146
O         -2.73755        2.27815        0.98151
O         -1.15413        2.40972       -0.47923
H          3.01521       -1.51760        1.87253
H          2.06730       -0.06750        2.31581
H          1.37715       -2.09335        0.04297
H          0.52377       -1.89532        1.59733
H          0.35109        1.34207       -1.20260
H          1.27752       -0.12607       -1.64291
H          1.97590        1.90535        0.61524
H          2.85324        1.68438       -0.93993
H          4.70533       -1.26616        0.26847
H         -4.28700        0.60841       -0.28372
H         -4.72135       -1.84154       -0.60340
H         -2.76212       -3.44635       -0.50299
