20
358069.log	Energy: -355230.6415094
C         -4.12521       -0.40343        0.09009
C         -2.91375       -0.94474       -0.05122
C         -1.64562       -0.20323       -0.03608
C         -0.44330       -0.89157       -0.02495
C          0.80231       -0.21031       -0.00515
C          0.82585        1.21488       -0.00390
C         -0.42703        1.91285       -0.01893
C         -1.61473        1.22237       -0.03382
N          1.99265        1.93448        0.00539
N          2.00566       -1.01833        0.01241
O          1.89516       -2.23391        0.00473
O          3.09651       -0.44256        0.03495
H         -4.31164        0.65010        0.23530
H         -5.03321       -0.99017        0.07290
H         -2.80694       -2.02683       -0.19069
H         -0.42289       -1.99030       -0.02837
H         -0.42463        3.00110       -0.01962
H         -2.56324        1.76821       -0.04659
H          2.90265        1.46634        0.02403
H          1.98731        2.93918        0.01475
