24
358073.log	Energy: -426684.7584572
C          5.28939       -0.84503        0.10888
C          4.27295       -0.00060       -0.03726
C          2.84096       -0.43737       -0.01832
O          2.10342        0.82604       -0.06634
C          0.72584        0.75538       -0.03523
C         -0.04104       -0.38556       -0.04140
C         -1.46293       -0.27502       -0.00794
C         -2.07966        0.99994        0.02127
C         -1.23564        2.17092        0.02644
C          0.12639        2.05686       -0.00039
N         -3.44278        1.17123        0.03885
N         -2.21532       -1.51565       -0.00668
O         -1.60638       -2.57399       -0.02729
O         -3.44751       -1.45222        0.01808
H          5.17951       -1.90992        0.25754
H          6.32370       -0.52876        0.09004
H          4.40915        1.07610       -0.18335
H          2.57144       -1.03656       -0.90837
H          2.56505       -0.97222        0.90899
H          0.39119       -1.38940       -0.07092
H         -1.70501        3.15415        0.05146
H          0.78521        2.92874        0.00228
H         -4.07393        0.36723        0.05032
H         -3.85337        2.08577        0.08507
