19
3595586.log	Energy: -479287.5195376
C         -3.42842        0.04324        0.54459
N         -4.09353       -0.71255        1.11817
N         -2.63505        0.90530       -0.18567
C         -1.26402        0.55755       -0.41726
N         -0.37927        1.51555       -0.46364
C          1.00333        1.24297       -0.86578
C          1.45453       -0.23846       -0.56115
C          0.36176       -1.27200       -0.82137
O          0.56728       -2.42202       -1.11320
N         -0.97939       -0.81477       -0.69269
N          1.96603       -0.38981        0.87311
O          3.12012       -0.72095        0.99082
O          1.16891       -0.16780        1.76066
O          1.85193        2.13919       -0.19450
H         -2.80662        1.91614       -0.01828
H          1.17117        1.45865       -1.95497
H          2.32377       -0.47343       -1.24619
H         -1.73852       -1.49743       -0.82346
H          1.46980        2.44274        0.67345
