29
3620566.log	Energy: -462941.3862627
C         -0.08514       -1.54451        0.89491
N         -0.73592       -0.36636        0.26889
C          0.02252        0.79917        0.02620
C          1.39542        0.83274       -0.08702
C          2.29287       -0.25138       -0.30281
C          3.65168       -0.17378       -0.16487
C          4.47815       -1.30286       -0.44720
N          5.13654       -2.22764       -0.67231
C          4.32914        1.00482        0.26651
N          4.87033        1.96517        0.61923
C         -0.73392        2.04472       -0.11581
C         -2.08135        2.06685       -0.19716
C         -2.83592        0.83372       -0.13409
C         -4.23911        0.81301       -0.30685
C         -4.94071       -0.37792       -0.23722
C         -4.25226       -1.58472        0.00406
C         -2.87846       -1.59745        0.17764
C         -2.14748       -0.38162        0.11366
H          0.79403       -1.23693        1.49547
H          0.23983       -2.27219        0.13039
H         -0.77052       -2.05681        1.59505
H          1.86052        1.82813       -0.06799
H          1.86837       -1.20526       -0.64798
H         -0.14297        2.96292       -0.16801
H         -2.63322        3.00208       -0.31541
H         -4.76268        1.75155       -0.49715
H         -6.02153       -0.39314       -0.37010
H         -4.81428       -2.51967        0.04968
H         -2.36685       -2.54348        0.34563
