25
362641.log	Energy: -665963.2286404
C          2.60572        2.43940       -0.27144
C          3.48391        1.59312       -0.95869
C          3.35523        0.20596       -0.84144
C          2.34600       -0.32999       -0.04136
C          1.47166        0.51563        0.66262
C          1.60172        1.91305        0.54123
N          0.54210        0.00294        1.61368
C         -0.56268       -0.57757        1.34599
C         -1.17705       -0.86159       -0.01248
O         -0.63939       -1.56114       -0.84480
C         -2.48826       -0.24719       -0.24504
C         -3.34524       -0.20852       -1.32336
C         -4.48477        0.56730       -0.92139
C         -4.25909        0.95621        0.37750
O         -3.03936        0.47712        0.83559
S          2.23623       -2.07587        0.14396
H          2.70980        3.52032       -0.36710
H          4.26839        2.01495       -1.58423
H          4.03971       -0.45527       -1.37733
H          0.93042        2.57176        1.08993
H         -1.19146       -0.92845        2.18780
H         -3.19824       -0.66838       -2.28703
H         -5.33801        0.78682       -1.53648
H         -4.78777        1.52991        1.11027
H          1.13996       -2.30086       -0.63396
