25
363036.log	Energy: -440349.9206909
C         -2.02208        2.51452       -0.00305
C         -2.77197        1.36177       -0.00225
C         -2.14023        0.07982        0.00093
C         -0.72379        0.00575        0.00047
C          0.03636        1.22544        0.00056
C         -0.60389        2.44958       -0.00113
C          1.49819        1.10013        0.00075
C          2.14558       -0.10312        0.00252
C          1.40640       -1.37678       -0.00245
O          1.97850       -2.45281       -0.00912
C         -0.08583       -1.27691       -0.00015
C         -0.84769       -2.42641        0.00063
C         -2.26864       -2.35286        0.00409
C         -2.90010       -1.13373        0.00302
N          3.59511       -0.08431        0.00485
O          2.15063        2.29123        0.00073
H         -2.50228        3.49282       -0.00477
H         -3.86192        1.40883       -0.00352
H         -0.01999        3.37485       -0.00180
H         -0.35592       -3.40603       -0.00093
H         -2.84059       -3.28066        0.00589
H         -3.98881       -1.06827        0.00302
H          3.94090       -0.59280       -0.81215
H          3.93789       -0.59566        0.82146
H          3.15794        2.14666        0.00215
