30
366835.log	Energy: -476139.0714037
C         -4.29359       -0.94378       -1.26933
C         -3.68023       -1.87793       -0.42868
C         -2.71542       -1.46432        0.49457
C         -2.36858       -0.10922        0.57972
C         -2.97627        0.82674       -0.26986
C         -3.93937        0.40739       -1.19010
C         -1.34033        0.34968        1.58370
N          0.00213        0.48918        0.92822
C          0.33776        1.74628        0.24409
O         -0.48308        2.64194        0.30789
C          1.62638        1.72932       -0.39774
C          2.44355        0.62774       -0.35880
C          3.74915        0.56106       -0.99060
C          4.50068       -0.56456       -0.90219
C          4.03112       -1.73067       -0.18077
C          2.82070       -1.73243        0.42796
C          1.97470       -0.54932        0.36142
N          0.77472       -0.58529        0.96844
H         -5.04461       -1.26875       -1.98707
H         -3.95149       -2.93006       -0.49432
H         -2.23019       -2.19532        1.13976
H         -2.68292        1.87987       -0.21541
H         -4.41264        1.13422       -1.84866
H         -1.61143        1.35353        1.99988
H         -1.26619       -0.35454        2.44431
H          1.90660        2.64412       -0.92160
H          4.09282        1.44254       -1.53123
H          5.48329       -0.62739       -1.37289
H          4.68454       -2.60165       -0.14870
H          2.43736       -2.59510        0.97587
