29
367258.log	Energy: -524404.6848379
C         -4.76622       -1.65706        0.27027
O         -4.42513       -0.25783        0.41840
C         -3.10768        0.10119        0.21163
C         -2.06326       -0.76072       -0.10764
C         -0.76127       -0.24757       -0.27744
C         -0.55796        1.13773       -0.12806
C         -1.62228        2.00773        0.19280
C         -2.89585        1.49294        0.36536
O          0.73901        1.54777       -0.32877
C          1.05653        2.95586       -0.19644
C          0.31349       -1.22156       -0.60664
O          0.07830       -2.38326       -0.86437
C          1.71743       -0.69612       -0.61705
C          2.62497       -1.05044        0.29406
C          3.98492       -0.47952        0.26426
O          4.46589        0.38304       -0.43594
O          4.76079       -1.07560        1.23468
H         -5.84336       -1.64606        0.48367
H         -4.22790       -2.26173        1.00584
H         -4.57332       -1.99118       -0.75338
H         -2.21566       -1.83545       -0.23683
H         -1.45142        3.07577        0.30657
H         -3.74291        2.13304        0.61595
H          0.51277        3.54038       -0.94321
H          0.85802        3.29620        0.82341
H          2.13698        2.95317       -0.40704
H          1.93549        0.01665       -1.42758
H          2.43240       -1.76456        1.10167
H          5.69107       -0.72395        1.24819
