17
36827.log	Energy: -818343.1601684
C         -2.75742       -0.63265        0.41669
C         -2.76736        0.63129       -0.40704
S         -1.38591        1.74705        0.00880
C         -0.05731        0.67362        0.00635
C         -0.05731       -0.67606       -0.02132
S         -1.38806       -1.74569       -0.04612
C          1.35082       -1.21173        0.00057
O          1.76892       -2.32463       -0.09375
N          2.15124       -0.00826        0.27613
C          1.34998        1.20822        0.07595
O          1.76420        2.32660        0.05765
O          3.43617        0.01120       -0.25970
H         -2.71124       -0.41777        1.50502
H         -3.68779       -1.22121        0.25690
H         -2.75253        0.41454       -1.49623
H         -3.69217        1.22144       -0.22206
H          4.04577       -0.02229        0.55978
