29
369000.log	Energy: -486212.8093606
C          3.39184        1.03411        0.41440
C          2.10213        1.53177       -0.23564
N          0.98235        0.55451       -0.04618
C         -0.37345        0.99034       -0.03597
C         -0.72301        2.33061       -0.03934
C         -2.09553        2.69278       -0.01029
C         -3.08819        1.74173        0.01093
C         -2.75791        0.35183        0.01530
C         -1.38914       -0.02701       -0.00806
C         -1.06023       -1.42284       -0.00058
C         -2.04135       -2.39987        0.01546
C         -3.40224       -1.99933        0.03812
C         -3.75630       -0.66886        0.04322
N          0.31261       -1.77643       -0.00633
C          1.34254       -0.82167       -0.04155
N          2.58856       -1.27934       -0.06924
C          3.70818       -0.41271        0.03457
O          4.83270       -0.81718       -0.12140
H          4.24119        1.68694        0.12277
H          3.34251        1.10158        1.52226
H          1.81275        2.51356        0.20748
H          2.25228        1.68862       -1.33113
H          0.02430        3.11920       -0.05208
H         -2.34716        3.75513       -0.00974
H         -4.13733        2.03055        0.02609
H         -1.79724       -3.45842        0.01228
H         -4.16909       -2.77644        0.05379
H         -4.80378       -0.37372        0.06768
H          0.59121       -2.76596        0.00053
