27
3695570.log	Energy: -482954.3093822
C         -4.64509       -0.25334        0.17297
C         -3.86495        0.65540        0.89211
C         -2.46905        0.61705        0.80783
C         -1.87269       -0.34037       -0.02229
C         -2.64428       -1.26414       -0.75310
C         -4.03365       -1.21090       -0.64577
N         -0.42549       -0.42254       -0.20086
N          0.18580       -1.62994       -0.10113
C          1.53412       -1.38826       -0.02357
C          2.64900       -2.28177        0.01747
C          3.89288       -1.73747        0.17599
C          4.09678       -0.31569        0.30220
C          3.05722        0.57273        0.26319
C          1.74774        0.04225        0.08106
N          0.48192        0.63470        0.07522
N          0.06534        1.88833        0.04368
C          0.92124        2.85839       -0.41167
N          1.54480        3.77604       -0.76221
H         -5.73198       -0.21682        0.24719
H         -4.34151        1.40351        1.52713
H         -1.87101        1.33763        1.37391
H         -2.16403       -2.01223       -1.38747
H         -4.64475       -1.92001       -1.20516
H          2.47189       -3.35255       -0.07491
H          4.77672       -2.37808        0.21219
H          5.12126        0.03911        0.42786
H          3.20113        1.65002        0.35790
