27
3698590.log	Energy: -441051.9916351
C          4.02982       -1.55426       -0.37882
C          4.32322       -0.18947       -0.46289
C          3.31122        0.75449       -0.27343
C          2.00352        0.33225        0.01580
C          1.70952       -1.03687        0.09079
C          2.72345       -1.97694       -0.10700
C          0.95434        1.36915        0.19527
O          0.92171        2.40227       -0.43062
C         -0.11523        1.11922        1.28336
N         -1.32988        0.52005        0.69683
C         -1.79349       -0.72707        1.14901
C         -2.90230       -1.28954        0.61282
C         -3.67804       -0.62910       -0.45394
O         -4.67167       -1.12886       -0.95091
C         -3.14722        0.68251       -0.86063
C         -2.03190        1.21358       -0.30736
H          4.81844       -2.29223       -0.53071
H          5.33888        0.13839       -0.68358
H          3.52946        1.82196       -0.35782
H          0.69078       -1.37501        0.28003
H          2.49552       -3.04140       -0.05417
H          0.29244        0.48355        2.09971
H         -0.36598        2.10226        1.75640
H         -1.21875       -1.20275        1.95020
H         -3.27778       -2.25518        0.94639
H         -3.70373        1.20182       -1.64008
H         -1.61199        2.18327       -0.60984
