18
3702565.log	Energy: -377706.4975987
C         -2.26064       -1.66355        0.01480
N         -0.77321       -1.64136        0.15613
C         -0.35656       -0.31664        0.03546
C          0.90307        0.27208        0.01656
C          0.97829        1.69998        0.01038
C         -0.16105        2.47417       -0.00967
C         -1.46541        1.89504       -0.02905
C         -1.52973        0.52928       -0.01095
O         -2.68376       -0.25091       -0.05084
N          2.11939       -0.53314       -0.01269
O          1.98122       -1.74765       -0.13772
O          3.19555        0.03108        0.07080
H         -2.73372       -2.07348        0.93032
H         -2.62771       -2.13726       -0.91435
H         -0.18895       -2.40770       -0.18314
H          1.97453        2.15530        0.01750
H         -0.08398        3.56209       -0.01573
H         -2.35528        2.52022       -0.06178
