24
3704669.log	Energy: -416603.3865721
C         -0.71959       -2.21413        0.30068
C          0.73323       -2.13503       -0.20973
C          1.27296       -0.76307       -0.08153
C          0.50640        0.35053        0.00414
C         -0.94250        0.30857        0.00218
C         -1.73160        1.46243       -0.10964
C         -3.12242        1.35193       -0.14418
C         -3.72478        0.09168       -0.06962
C         -2.94481       -1.06234        0.05246
C         -1.54800       -0.97024        0.09333
C          1.38923        1.57606        0.08600
O          1.13109        2.74632        0.16246
N          2.72920        1.04968        0.04477
C          2.73586       -0.38697       -0.05593
O          3.73285       -1.05426       -0.10046
H         -0.71004       -2.42765        1.39438
H         -1.21551       -3.08869       -0.16828
H          0.78070       -2.44169       -1.28065
H          1.36861       -2.86752        0.33311
H         -1.25020        2.44359       -0.16543
H         -3.73752        2.24654       -0.22897
H         -4.81101        0.00708       -0.10288
H         -3.43082       -2.03430        0.11800
H          3.56595        1.62179        0.08238
