35
3705359.log	Energy: -465131.9065699
C          4.72249       -2.91411       -0.40101
C          3.60281       -1.97069       -0.83179
C          3.25989       -0.95699        0.27003
C          2.26733        0.09600       -0.23667
C          1.64525        0.87468        0.93255
N          0.65973        1.88381        0.43728
C          1.10898        3.19368        0.24914
C          0.26920        4.17941       -0.19399
C         -1.08892        3.85513       -0.49895
C         -1.53171        2.57567       -0.35386
C         -0.66903        1.50835        0.11395
C         -1.07651        0.19564        0.25672
C         -2.39439       -0.26586       -0.00484
C         -2.77454       -1.58085        0.05518
C         -4.11239       -1.97402       -0.23512
N         -5.19787       -2.29188       -0.47829
C         -1.86994       -2.62685        0.39659
N         -1.11494       -3.46150        0.67317
H          5.66158       -2.37864       -0.22444
H          4.91599       -3.67052       -1.17101
H          4.46837       -3.45031        0.52112
H          3.89865       -1.44205       -1.75881
H          2.69959       -2.55957       -1.09175
H          2.83683       -1.50077        1.13852
H          4.18170       -0.46878        0.63780
H          2.77386        0.78580       -0.93857
H          1.46747       -0.39660       -0.83114
H          1.12652        0.18208        1.63945
H          2.43285        1.38752        1.52738
H          2.16186        3.39168        0.48320
H          0.62022        5.20068       -0.31844
H         -1.74986        4.65048       -0.84958
H         -2.56176        2.30403       -0.59523
H         -0.35963       -0.56441        0.57752
H         -3.15376        0.48125       -0.27894
