22
373102.log	Energy: -358414.1680382
C          3.23600       -1.26407        0.60622
C          1.98284       -0.60951        0.10149
C          1.77793        0.70235        0.33841
C          0.67051        1.55348       -0.11086
O          0.81624        2.68635       -0.50432
C         -0.70687        0.94267        0.00505
C         -1.06080       -0.32781       -0.32839
C         -0.22462       -1.39629       -0.81645
C          1.10731       -1.50618       -0.64950
O         -2.44818       -0.55533       -0.31101
C         -2.87328       -1.50832        0.69734
O         -1.62010        1.84648        0.45095
H          3.89264       -1.55927       -0.22584
H          3.01168       -2.17212        1.18419
H          3.82971       -0.60975        1.25962
H          2.53292        1.28267        0.88563
H         -0.77401       -2.17552       -1.36386
H          1.61726       -2.37430       -1.08588
H         -3.96259       -1.50704        0.57150
H         -2.45632       -2.49633        0.48569
H         -2.58441       -1.16270        1.69330
H         -2.54469        1.43631        0.45088
