23
3738959.log	Energy: -561237.1672071
C          2.76160        2.14609       -0.34828
C          1.52131        1.55628       -0.18219
O          1.65952        0.17998        0.04290
C          3.04604       -0.05554        0.00362
C          3.74193        1.11136       -0.22702
N          3.41959       -1.44738        0.21599
O          4.61432       -1.68730        0.23222
O          2.51804       -2.25045        0.35689
C          0.16580        2.06971       -0.20960
N         -0.98517        1.45755       -0.12049
N         -1.09257        0.14126        0.16358
C         -2.38025       -0.41101       -0.06574
N         -2.60487       -1.64907       -0.53496
O         -3.95618       -1.86325       -0.52276
N         -4.63651       -0.73385       -0.07912
C         -3.71394        0.19716        0.23964
N         -3.95535        1.42010        0.85571
H          2.97067        3.18493       -0.53608
H          4.81335        1.22602       -0.30390
H          0.10133        3.16949       -0.33039
H         -0.29677       -0.52128        0.04701
H         -4.90273        1.77492        0.76742
H         -3.24219        2.12948        0.71442
