28
3739166.log	Energy: -404962.4194205
C         -5.72081       -0.19231       -0.30043
C         -4.23653       -0.38055       -0.59970
C         -3.42154       -0.58588        0.68430
C         -1.91713       -0.71103        0.41056
N         -1.33806        0.60390        0.01282
C          0.05300        0.79727        0.06198
C          0.95943       -0.28354        0.01966
C          2.32803       -0.00998       -0.03742
C          2.83493        1.29093       -0.05112
C          1.92622        2.35718       -0.00743
C          0.55762        2.12645        0.05381
N          3.27869       -1.15560       -0.08163
O          2.81137       -2.28393       -0.06479
O          4.47150       -0.90202       -0.12976
H         -6.14099       -1.05332        0.23226
H         -6.29679       -0.07094       -1.22571
H         -5.90362        0.69548        0.31511
H         -4.09620       -1.24733       -1.27601
H         -3.85046        0.49469       -1.15961
H         -3.62234        0.23654        1.39863
H         -3.76735       -1.50584        1.19923
H         -1.40496       -1.12494        1.30939
H         -1.73513       -1.42864       -0.42468
H         -1.90939        1.40490        0.28249
H          0.61647       -1.32014        0.01440
H          3.91137        1.46800       -0.09652
H          2.30408        3.38127       -0.01950
H         -0.13147        2.96846        0.08332
