23
374034.log	Energy: -401006.9533898
C         -3.64414        0.42735        0.00363
C         -3.59222       -1.00391        0.00369
C         -2.39320       -1.65597        0.00067
C         -1.15922       -0.90744       -0.00133
C         -1.20695        0.52397       -0.00081
C         -2.49063        1.16215        0.00123
C          0.03145        1.24704       -0.00252
C          1.25131        0.49557        0.00122
C          1.17519       -0.95084       -0.00278
N          0.00801       -1.63200       -0.00356
N          2.37989       -1.69876       -0.00550
C          3.51228       -1.03197       -0.00083
C          3.56891        0.42804        0.00782
N          2.47530        1.16148        0.00765
N          0.06819        2.61727       -0.00881
H         -4.61939        0.91041        0.00509
H         -4.53195       -1.55794        0.00621
H         -2.31962       -2.74642        0.00054
H         -2.53711        2.25058        0.00170
H          4.44864       -1.60710       -0.00308
H          4.53935        0.93326        0.01453
H         -0.77011        3.17014       -0.00801
H          0.95382        3.10730       -0.00538
