26
3742076.log	Energy: -453530.7198728
C         -4.20915        0.20315        0.48467
C         -3.76249        1.34512       -0.24345
C         -2.47919        1.40365       -0.72545
C         -1.57211        0.31870       -0.50176
C         -0.22911        0.35495       -0.99169
C          0.62229       -0.70232       -0.76618
C          0.17640       -1.84490       -0.03111
C         -1.10690       -1.89905        0.44858
C         -2.01690       -0.81715        0.22359
C         -3.36093       -0.85086        0.71354
C          2.03391       -0.68120       -1.28143
C          3.03279       -0.26043       -0.23555
O          4.09748       -0.77529       -0.04131
C          2.60662        1.00095        0.55668
O          2.60293        2.14306        0.17457
O          2.20309        0.64740        1.80783
H         -5.23396        0.18666        0.85353
H         -4.45946        2.16604       -0.40783
H         -2.12841        2.27223       -1.28151
H          0.09964        1.23775       -1.54053
H          0.87189       -2.66477        0.14557
H         -1.45492       -2.76549        1.01105
H         -3.69285       -1.72645        1.26998
H          2.31833       -1.68309       -1.68195
H          2.13051        0.00399       -2.15803
H          1.90999        1.42819        2.35845
