17
3758882.log	Energy: -353953.2793256
C          2.09807        0.98905        0.00044
C          0.98117        1.78826       -0.00186
C         -0.33866        1.21751       -0.00174
C         -0.46453       -0.19824        0.00014
C          0.69396       -1.01616        0.00041
C          1.94266       -0.42365        0.00109
O          3.01956       -1.28720        0.00109
N         -1.75200       -0.87723        0.00079
O         -2.77365       -0.18698        0.01396
O         -1.77144       -2.09582       -0.01093
N         -1.42433        2.06053       -0.00660
H          3.09741        1.42416        0.00124
H          1.08412        2.87280       -0.00323
H          0.59198       -2.10864       -0.00061
H          3.87691       -0.80112        0.01699
H         -2.37736        1.69189        0.00221
H         -1.31056        3.05729        0.00020
