30
3765036.log	Energy: -478559.2418835
C          3.77577       -0.67416       -0.08476
C          3.77667        0.75509        0.02552
C          2.59973        1.44100        0.07054
C          1.32255        0.76561        0.00676
C          1.32364       -0.66131       -0.10131
C          2.59377       -1.34866       -0.14392
C          0.09613       -1.35996       -0.16304
C         -1.12364       -0.66291       -0.11263
C         -2.39417       -1.35759       -0.15649
C         -3.57392       -0.68111       -0.12705
C         -3.57870        0.75322       -0.05013
C         -2.40823        1.44521        0.00359
C         -1.12781        0.77366       -0.02038
C          0.09539        1.47356        0.04332
C          0.14697        2.95793        0.15117
O         -0.80450        3.70556        0.06004
C          0.10321       -2.86554       -0.31366
O         -0.69453       -3.52504        0.67885
H          4.73102       -1.19595       -0.11791
H          4.73527        1.27230        0.07265
H          2.60510        2.53164        0.15753
H          2.58285       -2.44045       -0.22371
H         -2.38255       -2.45232       -0.19714
H         -4.52883       -1.20376       -0.15833
H         -4.53933        1.26869       -0.03495
H         -2.41646        2.54328        0.06067
H          1.15841        3.38012        0.32703
H         -0.37195       -3.17825       -1.26803
H          1.12424       -3.30064       -0.26856
H         -0.46967       -3.19310        1.57446
