26
377704.log	Energy: -497905.8530122
C          4.42343       -1.02145       -0.00374
C          4.62914        0.35333       -0.00970
C          3.53779        1.25183       -0.00879
C          2.26203        0.72727       -0.00142
C          2.05394       -0.69246        0.00401
C          3.11966       -1.56832        0.00271
C          0.60777       -0.93208        0.00928
N         -0.27338       -1.91060        0.00210
C         -1.55114       -1.27128        0.00121
C         -1.41080        0.17461        0.00695
N         -0.02320        0.40222        0.01565
C          0.95447        1.47006        0.00332
O          0.69048        2.63788        0.00138
C         -2.50881        1.02596        0.00546
C         -3.75943        0.39272       -0.00247
C         -3.93300       -1.01240       -0.00792
C         -2.82344       -1.85143       -0.00563
O         -4.83355        1.24292       -0.00564
H          5.27832       -1.70074       -0.00365
H          5.64346        0.75443       -0.01468
H          3.70506        2.33055       -0.01248
H          2.96501       -2.64781        0.00696
H         -2.41956        2.11012        0.01025
H         -4.93317       -1.43488       -0.01442
H         -2.93033       -2.93729       -0.00964
H         -5.69780        0.75975       -0.01224
