24
3780085.log	Energy: -416568.2498709
C         -0.74290        2.78395       -0.52020
C          0.47805        2.39889       -0.12618
C          0.74197        1.11191        0.61043
C         -0.44400        0.11625        0.68009
C         -1.75479        0.66565        0.13862
C         -1.89630        1.91122       -0.35346
C         -2.87279       -0.29152        0.14307
C         -2.63235       -1.60813       -0.00632
C         -1.25874       -2.07698       -0.16551
C         -0.21263       -1.26250        0.10375
C          1.15483       -1.77690       -0.12476
O          1.44499       -2.93765       -0.33980
N          2.20855       -0.82190       -0.12014
C          2.07739        0.56721        0.11675
O          3.06289        1.26297       -0.02598
H         -0.91378        3.74378       -1.00849
H          1.36691        3.01639       -0.29103
H          0.94718        1.42190        1.68287
H         -0.62758       -0.05529        1.78607
H         -2.86090        2.29560       -0.68485
H         -3.88007        0.11561        0.22593
H         -3.42568       -2.35297       -0.03656
H         -1.10806       -3.10081       -0.52541
H          3.15273       -1.16780       -0.35896
