23
3781984.log	Energy: -436735.7159886
C         -4.29410        0.16370        0.14610
C         -2.87123       -0.26587        0.33612
O         -2.38405       -0.66650        1.37169
N         -2.07420       -0.14608       -0.82949
N         -0.72824       -0.55375       -0.86328
C          0.24389        0.35466       -0.36654
C         -0.01175        1.75178       -0.32173
C          0.99294        2.64527        0.00394
C          2.29448        2.18985        0.30047
C          2.56386        0.83549        0.27780
C          1.55003       -0.10246       -0.04366
N          1.92320       -1.51422       -0.00174
O          1.06371       -2.35569       -0.25857
O          3.07294       -1.79903        0.29048
H         -4.92094       -0.27044        0.94560
H         -4.73480       -0.14531       -0.80961
H         -4.39472        1.25645        0.22827
H         -2.42695        0.14141       -1.74346
H         -0.61213       -1.55062       -0.53477
H         -1.01132        2.12164       -0.54628
H          0.78348        3.71699        0.03348
H          3.07491        2.90622        0.55101
H          3.56753        0.45732        0.51359
