26
378710.log	Energy: -495464.9146930
C         -4.23745       -0.97952       -0.01584
C         -2.94430       -1.48129       -0.02209
C         -1.85559       -0.58975       -0.00993
C         -2.11405        0.81392        0.00860
N         -3.40098        1.30732        0.01904
C         -4.41688        0.42346        0.00670
N         -1.07903        1.77871        0.00812
C          0.17375        1.35933        0.01705
C          1.24899        2.37751       -0.00812
C          2.56060        2.05756       -0.02905
C          2.96001        0.66803       -0.00424
C          4.15469       -0.01186       -0.04629
N          3.90143       -1.41306       -0.11905
N          2.51529       -1.59827        0.17899
C          1.89665       -0.34626        0.05928
C          0.55472       -0.04609        0.03234
C         -0.47112       -1.08648       -0.01168
O         -0.16642       -2.27664       -0.05817
H         -5.09937       -1.63964       -0.02597
H         -2.74701       -2.55747       -0.03690
H         -5.42606        0.85812        0.01585
H          0.90564        3.41842       -0.01672
H          3.34538        2.81295       -0.05839
H          5.16747        0.36444       -0.10069
H          4.51837       -2.05920        0.38872
H          2.04990       -2.45880       -0.17060
