30
3788432.log	Energy: -509472.1836529
C          0.79954        2.92418       -0.15973
C         -0.56745        2.30475       -0.17791
O         -1.57182        2.98594       -0.05185
C         -0.65869        0.83762       -0.32775
C         -1.93451        0.31066       -0.29609
N         -2.34421       -0.96481       -0.52491
C         -3.75267       -1.32983       -0.23938
C         -1.41627       -2.10165       -0.68741
C          0.57872        0.10558       -0.55895
C          1.29475       -0.49853        0.51213
C          2.53302       -1.11223        0.28735
C          3.03472       -1.14736       -1.01218
C          2.27732       -0.56001       -2.04161
N          1.08691        0.05132       -1.82620
N          0.73848       -0.47418        1.88131
O         -0.18418       -1.23765        2.11475
O          1.25096        0.27842        2.68457
H          0.73031        4.01290       -0.01636
H          1.33279        2.75281       -1.10470
H          1.41687        2.52621        0.65665
H         -2.75418        1.04669       -0.10013
H         -4.14002       -1.99102       -1.03500
H         -3.84483       -1.85370        0.72950
H         -4.40479       -0.43949       -0.20712
H         -0.74120       -1.92007       -1.54456
H         -0.80745       -2.25817        0.22772
H         -1.96069       -3.03710       -0.89260
H          3.09303       -1.55439        1.11514
H          3.99372       -1.61414       -1.22708
H          2.62751       -0.56952       -3.08331
