26
3803478.log	Energy: -427428.0117679
C         -4.50289       -0.79160        0.18946
C         -3.10648       -1.33665       -0.08535
N         -2.12063       -0.22428       -0.08047
C         -0.76332       -0.40930       -0.05026
C          0.13982        0.69124       -0.02181
C          1.54991        0.46789        0.00656
C          2.03231       -0.81688        0.00831
C          1.14906       -1.94406       -0.02319
C         -0.20194       -1.74199       -0.05236
O          3.35966       -1.20725        0.03566
C          4.35500       -0.15700        0.05507
N         -0.29046        2.07164       -0.01545
O         -1.50320        2.31303       -0.05230
O          0.55239        2.95587        0.02755
H         -4.56390       -0.27967        1.16000
H         -5.24132       -1.60378        0.20592
H         -4.82927       -0.07571       -0.57741
H         -2.83263       -2.09213        0.68836
H         -3.07634       -1.84963       -1.07592
H         -2.50467        0.73906       -0.07782
H          2.20555        1.34309        0.02841
H          1.58784       -2.94460       -0.02435
H         -0.87544       -2.59699       -0.08137
H          4.29049        0.44611       -0.85554
H          4.24946        0.45412        0.95638
H          5.28830       -0.73447        0.07891
