34
3804999.log	Energy: -487734.6304930
C          1.14609       -0.35128        2.38025
C          0.95935        0.60919        1.20259
C          2.27702        1.34766        0.85330
N          3.27322        0.41012        0.25131
C          2.73051       -0.20935       -1.00369
C          1.46704       -1.02536       -0.62274
N          0.46739       -0.06671       -0.05188
C         -0.87494       -0.57417        0.02689
C         -1.17538       -1.94066        0.22417
C         -2.49191       -2.38881        0.20888
C         -3.54910       -1.49350       -0.01101
C         -3.27815       -0.14537       -0.22053
C         -1.95106        0.31486       -0.19486
N         -1.73474        1.75719       -0.46295
O         -2.07256        2.17434       -1.55533
O         -1.27621        2.44577        0.43351
C          3.79652       -1.12634       -1.60909
H          1.34179        0.20012        3.30675
H          2.00959       -1.01309        2.21998
H          0.26427       -0.97606        2.54982
H          0.18853        1.38388        1.47987
H          2.03695        2.21113        0.19288
H          2.72085        1.76121        1.78494
H          4.13952        0.91904        0.04484
H          2.43564        0.56731       -1.75949
H          1.74268       -1.83533        0.08658
H          1.03790       -1.49678       -1.53150
H         -0.36619       -2.64804        0.40470
H         -2.70631       -3.44681        0.37108
H         -4.57663       -1.85346       -0.02528
H         -4.09270        0.55780       -0.41444
H          3.40458       -1.69122       -2.46124
H          4.66294       -0.55745       -1.96494
H          4.16993       -1.84857       -0.87023
