25
3807640.log	Energy: -564410.9132416
C          4.68267       -1.73369        0.15175
C          3.55760       -0.78219        0.40570
O          3.22688       -0.32101        1.47414
N          2.83683       -0.43503       -0.77281
N          1.79393        0.50296       -0.74834
C          0.50764        0.08459       -0.39823
C         -0.51000        1.05348       -0.12738
C         -1.84667        0.64212        0.04629
C         -2.17617       -0.70627       -0.02825
C         -1.17132       -1.68297       -0.26052
C          0.13546       -1.29429       -0.43808
N         -3.57153       -1.13803        0.14497
O         -4.40797       -0.27447        0.34557
O         -3.79988       -2.33450        0.07299
N         -0.23631        2.48493        0.00217
O          0.92213        2.86722       -0.15330
O         -1.16688        3.22460        0.25818
H          5.26737       -1.87470        1.08020
H          5.38881       -1.37981       -0.61282
H          4.33020       -2.73068       -0.15064
H          3.06926       -0.76358       -1.71267
H          2.10044        1.45858       -0.41922
H         -2.62898        1.39876        0.24557
H         -1.46196       -2.74244       -0.29337
H          0.90499       -2.04933       -0.60751
