30
3817139.log	Energy: -509503.2331427
C         -4.18307        0.26472        0.01091
C         -2.72540        0.11464        0.44386
C         -1.81126        1.09316       -0.30386
C         -0.34067        0.90621        0.12684
C          0.07657       -0.54929        0.06261
C         -0.91761       -1.56507       -0.00214
N         -2.26966       -1.29445        0.23505
C         -0.54284       -2.91912       -0.21289
C          0.79651       -3.27315       -0.26436
C          1.79333       -2.30057       -0.10173
C          1.41271       -0.97098        0.06837
N          2.52420        0.01448        0.26377
O          2.77362        0.37105        1.39627
O          3.11710        0.37831       -0.74059
N          0.51828        1.74434       -0.75089
C          0.67340        3.11377       -0.50092
O          0.09024        3.65126        0.42345
H         -4.55442        1.27347        0.23798
H         -4.84197       -0.43646        0.53856
H         -4.32310        0.11070       -1.06535
H         -2.64431        0.30386        1.55216
H         -1.91179        0.96823       -1.39851
H         -2.11601        2.14106       -0.09544
H         -0.21658        1.27700        1.18824
H         -2.94928       -1.92276       -0.18874
H         -1.31061       -3.68463       -0.30840
H          1.08408       -4.31439       -0.41968
H          2.84388       -2.58850       -0.10908
H          0.93815        1.30117       -1.56536
H          1.35461        3.62963       -1.19508
