23
3843417.log	Energy: -447332.0126848
C          0.35478        1.78403       -0.15834
C         -0.97218        2.13081       -0.20144
C         -1.99593        1.12809       -0.09982
C         -1.59777       -0.23365        0.03811
C         -0.21679       -0.55929        0.09088
C          0.75208        0.42056       -0.01431
C          2.17022        0.10293        0.04121
C          3.20277        0.65131        0.81430
N          4.41098        0.02562        0.51175
C          4.14111       -0.89968       -0.43593
N          2.77077       -0.88973       -0.75843
N         -2.54542       -1.32672        0.13561
O         -3.74860       -1.06042        0.12326
O         -2.11441       -2.46547        0.21913
N         -3.30956        1.51128       -0.14571
H          1.13221        2.55040       -0.23544
H         -1.26439        3.17405       -0.30897
H          0.05826       -1.61418        0.22551
H          3.14441        1.42792        1.55608
H          4.85645       -1.56504       -0.89448
H          2.29634       -1.46306       -1.43029
H         -4.06562        0.82522       -0.06780
H         -3.57078        2.47803       -0.23421
