27
38497.log	Energy: -415473.2614644
C          3.54367       -1.57120       -0.01976
C          3.87806       -0.18477       -0.00206
C          2.88330        0.77300        0.00837
C          1.48125        0.38455        0.00849
C          0.41100        1.28710       -0.00788
C         -0.90934        0.82541       -0.00424
C         -2.04839        1.70759       -0.01856
C         -3.31775        1.21965       -0.00998
C         -3.54485       -0.21430        0.00719
C         -2.48498       -1.09595        0.02471
C         -1.14043       -0.60116        0.00992
N         -0.10693       -1.49141        0.01438
C          1.17424       -1.02834        0.00651
C          2.24619       -1.99233       -0.00729
N         -4.87151       -0.67397       -0.06826
N          3.21948        2.14343       -0.05153
H          4.36346       -2.29172       -0.03720
H          4.92748        0.09151       -0.00950
H          0.59708        2.36252       -0.03056
H         -1.86260        2.78262       -0.03745
H         -4.17809        1.88453       -0.03309
H         -2.62240       -2.17593        0.03370
H          1.97450       -3.04756       -0.01259
H         -5.04316       -1.64180        0.15919
H         -5.60455       -0.05363        0.23479
H          2.55532        2.80240        0.32380
H          4.17388        2.38512        0.17428
