36
38507.log	Energy: -488463.8058628
C         -5.06823       -1.09612       -0.06851
C         -3.88933       -0.53838       -0.87177
N         -2.70024       -0.11245       -0.08328
C         -2.95610        1.07009        0.80336
C         -2.88052        2.35100       -0.02747
C         -2.03365       -1.23214        0.64177
C         -0.75964       -1.62865       -0.14484
N          0.22354       -0.51643       -0.09847
C          1.57751       -0.68865       -0.02964
C          2.15502       -2.00960        0.02945
C          3.51914       -2.18614        0.05583
C          4.40332       -1.07009        0.03050
C          3.88112        0.20664       -0.00385
C          2.47558        0.43108       -0.04061
N          2.03620        1.80391       -0.07566
O          0.82107        2.04040       -0.03186
O          2.87987        2.69114       -0.15018
H         -4.76166       -1.91213        0.59723
H         -5.85511       -1.48510       -0.72575
H         -5.52353       -0.31973        0.56263
H         -3.54669       -1.29068       -1.61490
H         -4.22485        0.34467       -1.46116
H         -3.93340        1.01015        1.32885
H         -2.17185        1.10896        1.59255
H         -3.73689        2.45961       -0.70168
H         -2.83454        3.23949        0.61347
H         -1.97292        2.35959       -0.65258
H         -1.74915       -0.94130        1.67715
H         -2.67901       -2.13294        0.74242
H         -0.32626       -2.56119        0.28514
H         -1.01307       -1.83891       -1.21615
H         -0.19228        0.43894       -0.19049
H          1.49054       -2.86725        0.08393
H          3.94183       -3.19331        0.08726
H          5.47961       -1.23656        0.02719
H          4.53990        1.08590       -0.02234
