27
38502.log	Energy: -415476.4599034
C         -3.82864       -1.02291       -0.04830
C         -2.67188       -1.74716       -0.01085
C         -1.40013       -1.07641        0.01138
C         -0.17563       -1.76834        0.02535
C          1.03075       -1.06450        0.02025
C          0.99005        0.37869       -0.00719
C          2.22035        1.12207       -0.01952
C          3.42492        0.45749       -0.00948
C          3.47124       -0.99464        0.02131
C          2.31963       -1.71567        0.03316
N          4.64841        1.15497       -0.11202
N         -0.18948        1.05919       -0.01251
C         -1.35645        0.35755        0.00682
C         -2.62575        1.10062        0.00330
C         -3.81638        0.40428       -0.04863
N         -2.60226        2.49794        0.13928
H         -4.79892       -1.52007       -0.07555
H         -2.68142       -2.83346       -0.00235
H         -0.17449       -2.85885        0.03826
H          2.15243        2.20771       -0.04700
H          4.44353       -1.48380        0.01883
H          2.33791       -2.80655        0.05240
H          5.47028        0.69167        0.24485
H          4.62863        2.13911        0.11458
H         -4.76800        0.92798       -0.06771
H         -1.71055        2.95692       -0.01495
H         -3.38852        3.00823       -0.23014
