25
388827.log	Energy: -627348.7405400
C          5.24650        0.99145       -0.59436
C          3.94429        0.58444       -0.05168
C          3.19384        1.12572        0.94935
C          1.94575        0.43791        1.17537
C          1.75083       -0.62528        0.34154
S          3.11389       -0.80164       -0.73861
C          0.64947       -1.56515        0.24438
N         -0.63148       -1.32946        0.21130
N         -1.12732       -0.05821        0.35292
C         -2.51103        0.08528        0.05256
N         -2.90266        1.35977       -0.26493
C         -4.23324        1.56535       -0.44210
C         -5.16557        0.51611       -0.32417
N         -4.77267       -0.75342       -0.02591
C         -3.45980       -0.97895        0.16363
H          5.13929        1.83738       -1.29619
H          5.76345        0.18768       -1.14098
H          5.93373        1.32364        0.20184
H          3.47874        1.98725        1.53807
H          1.25934        0.74937        1.95398
H          0.92512       -2.63585        0.18316
H         -0.53422        0.76256        0.13354
H         -4.53641        2.58931       -0.68898
H         -6.23785        0.67501       -0.46958
H         -3.14086       -2.00215        0.40235
