25
388815.log	Energy: -627346.9772453
C          3.55167        1.93488        1.05108
C          3.20417        0.62453        0.45058
C          2.07246        0.36403       -0.28062
S          2.06238       -1.29777       -0.81000
C          3.57193       -1.65186       -0.02325
C          4.05484       -0.54260        0.59674
C          1.00117        1.26400       -0.65836
N         -0.29009        1.10765       -0.59684
N         -0.85922       -0.07127       -0.19172
C         -2.26269       -0.02383        0.02336
N         -2.75834       -1.02653        0.81673
C         -4.10777       -1.09073        0.95278
C         -4.95884       -0.16006        0.32506
N         -4.46448        0.84846       -0.44519
C         -3.13069        0.92614       -0.60260
H          3.43617        2.75843        0.33023
H          4.58675        1.97052        1.41802
H          2.89732        2.16468        1.90756
H          4.00662       -2.63671       -0.06819
H          4.98090       -0.49856        1.15509
H          1.32658        2.24590       -1.05548
H         -0.33511       -0.74671        0.39270
H         -4.49356       -1.90061        1.58231
H         -6.04605       -0.20627        0.43112
H         -2.73022        1.73844       -1.22271
