21
3930462.log	Energy: -459145.8301246
C         -2.66752        2.90507        0.15559
N         -1.24388        2.72997       -0.21274
C         -0.64454        1.46776       -0.05230
C          0.77089        1.38541       -0.02763
C          1.38490        0.13395       -0.00577
C          0.65425       -1.05960        0.00232
C         -0.74001       -0.95648       -0.01231
C         -1.40080        0.27307       -0.03730
N         -1.55666       -2.20557        0.00022
O         -0.96017       -3.26584        0.02146
O         -2.76915       -2.07734       -0.00891
N          2.87595        0.06817        0.01783
O          3.47884        1.12712        0.05109
O          3.38820       -1.03543        0.00504
H         -3.31102        2.30700       -0.51670
H         -2.95205        3.96227        0.01116
H         -2.89606        2.62360        1.19722
H         -0.66278        3.52767        0.05348
H          1.38872        2.29083       -0.03493
H          1.15692       -2.03781        0.02159
H         -2.49631        0.29540       -0.05412
