24
395809.log	Energy: -411748.1410780
C          4.50976        1.21375        0.00263
C          3.19724        0.50344        0.00553
C          2.01355        1.17144        0.01459
C          0.75186        0.45186        0.00949
N         -0.39909        1.14422        0.01322
C         -1.53314        0.38479        0.00650
C         -2.91263        0.73615        0.01516
N         -3.60297       -0.47280       -0.00543
N         -2.80589       -1.57286        0.01226
C         -1.51077       -1.08908       -0.00007
N         -0.32092       -1.78379       -0.00669
C          0.78252       -1.02306       -0.00232
C          2.08427       -1.68188       -0.01091
C          3.22385       -0.95434       -0.00718
N         -3.57445        1.98152       -0.09508
H          5.15175        0.87779        0.83007
H          4.40489        2.30298        0.10121
H          5.05831        1.02749       -0.93308
H          1.95835        2.26140        0.02313
H         -4.61146       -0.58890       -0.00039
H          2.08319       -2.77521       -0.02130
H          4.20074       -1.44000       -0.01434
H         -2.92603        2.71916       -0.38321
H         -4.03554        2.26284        0.76947
