31
4025073.log	Energy: -520206.2214255
C         -5.90487       -0.63049        0.06189
C         -4.57791        0.09885        0.09288
O         -3.60309       -0.99099       -0.03741
C         -2.27241       -0.67460       -0.05514
C         -1.73920        0.61257        0.04991
C         -0.34484        0.75140        0.01817
C          0.51033       -0.35241       -0.12360
C         -0.06495       -1.64620       -0.22637
C         -1.43593       -1.81190       -0.19190
N          1.90828       -0.06878       -0.23737
N          2.72663       -0.98156        0.11738
N          4.02067       -0.81805       -0.19204
C          4.93050       -1.58191        0.70659
C          4.56760        0.47677       -0.68323
N          0.21074        2.13281        0.14874
O          0.69098        2.44127        1.22283
O          0.10919        2.86692       -0.81623
H         -6.06668       -1.13364       -0.90172
H         -6.74242        0.05659        0.23094
H         -5.94723       -1.41309        0.83366
H         -4.44461        0.78793       -0.75880
H         -4.39283        0.61494        1.05051
H         -2.37178        1.49170        0.14662
H          0.59411       -2.51159       -0.33380
H         -1.89659       -2.79744       -0.26890
H          5.81092       -1.89968        0.12193
H          5.26736       -0.98859        1.57262
H          4.43454       -2.49348        1.08882
H          3.99061        0.80954       -1.56829
H          4.49728        1.28212        0.06803
H          5.61650        0.35365       -0.98736
