28
4026961.log	Energy: -426209.6392379
C         -3.94785       -1.32028        0.40033
C         -3.93593       -0.65243       -0.82846
C         -3.02106        0.37916       -1.05770
C         -2.11219        0.74054       -0.05312
C         -2.12435        0.07169        1.17990
C         -3.04344       -0.95608        1.40344
C         -1.16559        1.86015       -0.28509
N          0.12199        1.87586       -0.33679
C          0.97690        0.75609       -0.21548
C          0.64433       -0.58272       -0.51554
N          1.51793       -1.60960       -0.46933
C          2.82935       -1.32058       -0.12254
C          3.26830       -0.02275        0.20102
C          2.33829        1.03540        0.15668
N          2.72632        2.31161        0.54653
N          3.71632       -2.39799       -0.17787
H         -4.66051       -2.12417        0.57579
H         -4.63963       -0.93705       -1.60927
H         -3.01153        0.89775       -2.01502
H         -1.41431        0.35361        1.95725
H         -3.05304       -1.47661        2.36004
H         -1.66690        2.83716       -0.42081
H         -0.37910       -0.85313       -0.81915
H          4.30079        0.16021        0.46868
H          3.70552        2.54031        0.56832
H          2.10607        3.08650        0.34180
H          3.32382       -3.32560       -0.27654
H          4.57027       -2.34727        0.35047
