28
4037810.log	Energy: -498666.2173609
C          2.13902        2.70227       -0.05271
C          2.49723        1.25873       -0.00760
C          1.42358        0.26726       -0.00716
C          1.76783       -1.14400        0.01719
C          3.15927       -1.53162        0.04697
C          4.12465       -0.57338        0.05068
C          3.79311        0.82565        0.02213
N          0.80538       -2.10211        0.01444
C         -0.49400       -1.69983       -0.01338
C         -1.55255       -2.68575       -0.01794
C         -2.85368       -2.28538       -0.03655
C         -3.20379       -0.88950       -0.05464
C         -2.23514        0.07210       -0.06195
C         -0.83559       -0.29525       -0.03529
N          0.12798        0.66552       -0.02859
C         -2.58348        1.51890       -0.11711
O         -2.66554        2.26253       -1.06203
O         -2.88134        1.97098        1.14862
H          1.66833        2.95899       -1.01721
H          2.99954        3.36681        0.08694
H          1.39087        2.95588        0.71718
H          3.38767       -2.59853        0.06626
H          5.18231       -0.84209        0.07401
H          4.61769        1.53921        0.02342
H         -1.26244       -3.73972       -0.00526
H         -3.66685       -3.01340       -0.03700
H         -4.26378       -0.62433       -0.06402
H         -3.09061        2.94400        1.16609
