13
4039690.log	Energy: -292692.9500046
C         -0.69588        0.81256        0.53083
C          0.75579        0.63444        0.09085
O          1.42529        1.58583       -0.26741
N          1.29533       -0.64152        0.21314
N          2.62223       -0.93670       -0.18739
N         -1.67247       -0.19760       -0.01214
O         -2.70777        0.23714       -0.46213
O         -1.35586       -1.37200        0.06385
H         -1.02191        1.84525        0.22981
H         -0.74127        0.80750        1.64805
H          0.72859       -1.48964        0.38266
H          3.28030       -0.39860        0.39589
H          2.78588       -0.62355       -1.15613
