26
4057749.log	Energy: -458837.4971949
C         -3.33898       -1.54337       -0.06251
C         -3.52542       -0.11344        0.47284
C         -2.21902        0.63574        0.16712
N         -1.19012       -0.42760       -0.02338
C         -1.82472       -1.78305       -0.14714
C          0.15768       -0.27580       -0.06116
N          0.84993       -1.49261       -0.14574
C          2.20674       -1.47684       -0.00268
N          2.98053       -0.32374        0.27732
C          2.32287        0.82882        0.28238
C          0.91429        0.94761        0.03597
N          0.42657        2.28070       -0.15904
O         -0.63920        2.45540       -0.74051
O          1.12281        3.20466        0.24713
N          2.89368       -2.65721       -0.12638
H         -3.80880       -1.65073       -1.05762
H         -3.82641       -2.28486        0.59322
H         -4.38936        0.38681        0.00177
H         -3.72685       -0.12577        1.55963
H         -1.92567        1.32161        0.98847
H         -2.30632        1.24759       -0.76571
H         -1.45601       -2.44046        0.67124
H         -1.52090       -2.25556       -1.10628
H          2.90975        1.74913        0.47373
H          2.40479       -3.52095       -0.29794
H          3.89209       -2.68229        0.01822
