26
40606.log	Energy: -451033.1338906
C          3.51097        1.56102       -0.66885
C          2.11632        1.45891       -0.61819
C          1.52913        0.29051       -0.11288
C          2.31949       -0.76599        0.34952
C          3.72485       -0.65102        0.29632
C          4.32159        0.52435       -0.21377
N          4.53346       -1.74411        0.67639
C          0.05081        0.17167       -0.06812
C         -0.70536        1.09979        0.66883
C         -2.09371        0.99249        0.71374
C         -2.72380       -0.04770        0.01221
C         -1.98012       -0.97844       -0.73106
C         -0.59168       -0.86565       -0.76549
N         -4.19607       -0.16431        0.05685
O         -4.81038        0.65805        0.71809
O         -4.71170       -1.07657       -0.56985
H          3.96880        2.46714       -1.06857
H          1.49527        2.27496       -0.97832
H          1.85390       -1.66792        0.73746
H          5.40308        0.61376       -0.26562
H          4.11984       -2.42632        1.29432
H          5.49531       -1.54321        0.90603
H         -0.20052        1.90195        1.21001
H         -2.69645        1.70607        1.28662
H         -2.49565       -1.77887       -1.27337
H          0.00039       -1.57998       -1.34072
