29
406583.log	Energy: -488598.6529483
C          4.10491       -0.90270        0.41454
C          3.02577       -1.87583       -0.09966
C          1.70562       -1.19829       -0.06374
C          1.50397        0.20192       -0.04638
C          2.63858        1.14204       -0.03910
O          2.54548        2.33956        0.09024
C          4.00049        0.47906       -0.23488
C          0.11053        0.41127       -0.02727
C         -0.51372       -0.86551       -0.03235
N          0.46417       -1.84779       -0.05477
C         -1.96854       -0.74614       -0.00997
C         -2.98958       -1.67234        0.00010
C         -4.32004       -1.18871        0.02686
C         -4.59182        0.17208        0.04353
C         -3.54164        1.12285        0.03311
C         -2.24531        0.66475        0.00659
C         -0.94568        1.46476       -0.01034
O         -0.85579        2.66028       -0.01633
H          5.10936       -1.32882        0.22689
H          4.01462       -0.79979        1.51572
H          3.26112       -2.18691       -1.14157
H          3.03451       -2.80295        0.50737
H          4.19512        0.41747       -1.32540
H          4.78764        1.15154        0.16487
H          0.30876       -2.83811       -0.05619
H         -2.79709       -2.74015       -0.01225
H         -5.13911       -1.90852        0.03517
H         -5.62212        0.52477        0.06499
H         -3.76076        2.19189        0.04627
