24
4067664.log	Energy: -289539.0641020
C          2.55115       -1.02820        0.09262
C          2.40455        0.50716       -0.08985
C          0.99497        0.97202       -0.02254
C         -0.04711        0.11089        0.00018
C         -1.34464        0.79445        0.02259
C         -2.48605        0.07980        0.01451
C         -2.39420       -1.38132       -0.01534
C         -1.21774       -2.05078       -0.03455
C          0.06435       -1.33951       -0.01225
C          1.30508       -1.86987        0.00719
C         -1.05778        2.27701        0.03231
C          0.50141        2.39935       -0.00201
H          3.01055       -1.22285        1.08683
H          3.28134       -1.40162       -0.65456
H          3.01922        1.02637        0.67245
H          2.83200        0.80371       -1.07192
H         -3.47247        0.52768        0.02454
H         -3.34229       -1.91863       -0.02451
H         -1.17868       -3.13704       -0.06127
H          1.47786       -2.94194       -0.00673
H         -1.47481        2.76085        0.93182
H         -1.51374        2.77673       -0.83966
H          0.83813        2.95583       -0.89287
H          0.87900        2.94491        0.87882
