23
4089206.log	Energy: -493669.3084534
C          1.86809       -2.22104        0.81570
N          0.52497       -1.70025        0.50393
C          0.22336       -0.42760        0.15424
C          1.19504        0.62316        0.03755
C          0.79549        1.96760        0.25375
C         -0.52500        2.31440        0.35191
C         -1.54265        1.32860        0.14827
C         -1.18687       -0.05925        0.01926
N         -2.18612       -1.04564       -0.24097
O         -1.87197       -2.23806       -0.25611
O         -3.34776       -0.68781       -0.44284
N         -2.83560        1.75887        0.09559
N          2.56137        0.42761       -0.38175
O          2.84857       -0.58380       -1.01372
O          3.37285        1.30569       -0.11422
H          2.47396       -2.38873       -0.10552
H          1.77150       -3.18715        1.34167
H          2.43606       -1.53538        1.46953
H         -0.21012       -2.43873        0.44406
H          1.58345        2.73422        0.31963
H         -0.80732        3.34686        0.54469
H         -3.06038        2.73961        0.17390
H         -3.61779        1.12185       -0.09448
