25
409149.log	Energy: -300286.2319963
C         -2.96354       -1.36386       -0.52426
C         -1.64637       -0.61309       -0.49992
C         -0.47862       -1.35190        0.11785
C          0.70956       -0.70961        0.19520
C          1.95698       -1.37417        0.54113
C          3.12157       -0.74246        0.27810
C          3.15017        0.59587       -0.30740
C          2.03748        1.33606       -0.44031
C          0.74598        0.74567       -0.10331
C         -0.40841        1.42645       -0.05954
N         -1.64458        0.77177        0.02065
C         -2.75365        1.31338        0.78974
H         -3.23889       -1.77675        0.44913
H         -2.88543       -2.20042       -1.23119
H         -3.77807       -0.73196       -0.89293
H         -1.39041       -0.51884       -1.56640
H         -0.57517       -2.40279        0.35405
H          1.94103       -2.36154        0.98539
H          4.07198       -1.21551        0.49799
H          4.11283        0.97826       -0.63537
H          2.05999        2.32588       -0.88536
H         -0.47763        2.50891       -0.14821
H         -2.90974        2.36870        0.53849
H         -3.70029        0.80303        0.60333
H         -2.54507        1.24671        1.86273
