28
4093283.log	Energy: -531958.2708611
C          6.23714       -0.46524        0.23034
O          5.01561        0.27628       -0.03552
C          3.88809       -0.49272       -0.28999
O          3.84247       -1.68793       -0.17029
N          2.90820        0.41470       -0.81298
N          1.57925       -0.00421       -0.54756
C          0.75950        0.84042        0.27698
C          1.21577        1.75802        1.13788
C         -0.68718        0.49789        0.17174
C         -1.60235        1.47673       -0.24716
C         -2.95942        1.16779       -0.33092
C         -3.38815       -0.12507        0.00610
C         -2.48105       -1.10958        0.42492
C         -1.12505       -0.79322        0.50479
N         -4.83021       -0.45528       -0.08001
O         -5.58121        0.40802       -0.50333
O         -5.17549       -1.56904        0.27691
H          6.98393        0.33285        0.30543
H          6.44888       -1.14701       -0.59937
H          6.12686       -1.01567        1.17050
H          3.11430        1.41646       -0.64054
H          1.14321       -0.28289       -1.44538
H          0.56527        2.29714        1.81209
H          2.25090        2.02513        1.27259
H         -1.25398        2.47858       -0.50341
H         -3.68983        1.91795       -0.65492
H         -2.84326       -2.11093        0.68600
H         -0.40168       -1.54702        0.83071
