31
410094.log	Energy: -396077.0957861
C          0.14106        2.92797        0.07308
C          0.09820        1.43238        0.14012
C          1.23227        0.70836        0.28653
C          2.57502        1.30250        0.33871
C          3.64810        0.62369       -0.11135
C          3.48243       -0.72000       -0.67047
C          2.33515       -1.39195       -0.48820
C          1.23690       -0.80541        0.38498
N         -0.06711       -1.44524        0.01739
C         -1.24996       -0.67204        0.00083
C         -2.50666       -1.31520       -0.13357
C         -3.67263       -0.56920       -0.25028
C         -3.62699        0.83032       -0.23139
C         -2.39752        1.47069       -0.10276
C         -1.19682        0.75203        0.01598
C         -0.18490       -2.83463        0.54248
H         -0.85272        3.39259        0.15628
H          0.57022        3.25785       -0.88526
H          0.75841        3.35444        0.87601
H          2.65414        2.31636        0.72726
H          4.65097        1.04128       -0.10009
H          4.30989       -1.12308       -1.24976
H          2.14399       -2.36558       -0.92885
H          1.49400       -1.05976        1.45864
H         -2.56443       -2.40065       -0.16430
H         -4.63102       -1.07750       -0.35554
H         -4.54140        1.40911       -0.31852
H         -2.36381        2.56455       -0.08989
H          0.78245       -3.35710        0.46536
H         -0.51712       -2.87096        1.59276
H         -0.90561       -3.40200       -0.07391
