29
4106744.log	Energy: -665048.1290215
C          4.07306        1.41401       -0.14846
C          3.24468        0.18199       -0.01842
N          1.94771        0.07541        0.02936
N          1.14055        1.17837       -0.02844
C         -0.26107        1.03304       -0.04713
S         -1.10327        2.46749       -0.21095
N         -0.82141       -0.21060        0.07693
C         -2.24758       -0.45142        0.03551
C         -2.70118       -1.50844       -0.77431
C         -4.06538       -1.80381       -0.79915
C         -4.96536       -1.06032       -0.02810
C         -4.49972       -0.01368        0.77381
C         -3.13801        0.29767        0.81844
C          4.02665       -1.12773        0.04486
O          5.05433       -1.23704       -0.58009
C          3.47122       -2.20083        0.92202
H          4.15964        1.94812        0.80919
H          3.67598        2.11649       -0.89544
H          5.10171        1.17332       -0.47855
H          1.51684        2.13747       -0.14155
H         -0.22373       -1.04590        0.08134
H         -2.00802       -2.08078       -1.38694
H         -4.42859       -2.61612       -1.42845
H         -6.02825       -1.29429       -0.05583
H         -5.20202        0.56864        1.37110
H         -2.78320        1.11598        1.44879
H          3.30713       -1.84730        1.95057
H          2.49488       -2.55322        0.55401
H          4.14352       -3.07113        0.96816
