23
4121983.log	Energy: -354184.4437224
C         -4.00218       -0.47336        0.23415
N         -2.90031        0.40296       -0.23035
C         -1.57069       -0.04167       -0.07583
C         -0.52297        0.89768       -0.03444
C          0.82909        0.43764       -0.01121
N          1.87722        1.36106        0.02156
C          3.11453        0.88575        0.04889
C          3.39139       -0.53524        0.04796
N          2.41754       -1.43509        0.01851
C          1.11103       -0.96466       -0.01461
C          0.02863       -1.89730       -0.05382
C         -1.26258       -1.44616       -0.08353
N         -0.85752        2.30418        0.04391
H         -4.02587       -1.40489       -0.35838
H         -4.96302        0.04196        0.06427
H         -3.93654       -0.74139        1.30157
H         -3.04454        1.38526        0.04398
H          3.94062        1.60616        0.07324
H          4.42533       -0.89527        0.07206
H          0.26471       -2.96399       -0.06139
H         -2.08641       -2.15991       -0.12156
H         -0.13858        2.81675        0.55917
H         -0.89169        2.70754       -0.89365
