26
4127831.log	Energy: -497882.6094578
C          4.67605       -0.23785        0.22385
C          4.22184       -1.53178       -0.02599
C          2.85213       -1.78895       -0.23773
C          1.97196       -0.72143       -0.19058
C          2.43447        0.59465        0.06218
C          3.77930        0.84878        0.26909
C          1.29882        1.57155        0.06564
O          1.35844        2.76405        0.13874
C          0.03090        0.70828       -0.07157
N         -1.12758        1.20158        0.10512
C         -2.35498        0.46914        0.08256
C         -3.31953        0.76957       -0.90209
C         -4.55704        0.12970       -0.81497
C         -4.80577       -0.76557        0.23009
C         -3.79173       -1.00362        1.17272
N         -2.57453       -0.40837        1.11033
C          0.49010       -0.72843       -0.37883
O         -0.21025       -1.62958       -0.74412
H          5.73974       -0.05675        0.38663
H          4.93077       -2.36057       -0.05752
H          2.49550       -2.80164       -0.43208
H          4.13506        1.86200        0.46341
H         -3.10089        1.48161       -1.69495
H         -5.32719        0.33131       -1.56085
H         -5.76411       -1.27126        0.31373
H         -3.93878       -1.69718        2.01030
