26
4136950.log	Energy: -469471.6159357
C          5.61411       -0.63798       -0.02968
C          4.13715       -0.41768       -0.01253
C          3.60375        0.87821       -0.06389
C          2.22378        1.08752       -0.05104
C          1.36194       -0.01705        0.01682
C          1.88270       -1.32723        0.06879
C          3.26203       -1.51622        0.05359
N         -0.07257        0.10414        0.03446
C         -0.74662        1.31847        0.02914
O         -0.24845        2.43165        0.04456
N         -2.19491        1.32020        0.01144
C         -3.08101        0.25595       -0.00207
N         -4.46001        0.37423        0.00897
N         -4.88693       -0.92441       -0.02194
N         -3.85749       -1.80834       -0.04749
N         -2.74269       -1.14186       -0.03806
H          6.17794        0.27815       -0.24917
H          5.90493       -1.38027       -0.78620
H          5.96912       -1.00799        0.94364
H          4.26796        1.74097       -0.11361
H          1.82646        2.10767       -0.08899
H          1.22010       -2.18971        0.12277
H          3.66510       -2.52781        0.09363
H         -0.59500       -0.78578        0.01704
H         -2.61693        2.26541        0.03687
H         -5.87685       -1.16546       -0.01879
