27
4138241.log	Energy: -451302.4456190
C          5.27131        0.11269        0.94122
C          4.76555       -0.24242       -0.43828
O          3.35953       -0.67221       -0.36114
C          2.41574        0.27638       -0.19224
O          2.62839        1.46613       -0.12557
C          1.01359       -0.39234       -0.11560
O          0.85178       -1.59014       -0.07305
N          0.01598        0.57500       -0.10789
C         -1.39605        0.31202       -0.03741
C         -1.91717       -0.99169        0.04197
C         -3.29402       -1.18405        0.09792
C         -4.16748       -0.07594        0.07659
C         -3.63920        1.23189       -0.00296
C         -2.26328        1.42332       -0.05669
N         -5.56370       -0.26809        0.22715
H          4.79230        1.02762        1.32247
H          6.35454        0.28629        0.93945
H          5.06438       -0.68707        1.66609
H          4.83454        0.59603       -1.15300
H          5.22337       -1.16065       -0.85321
H          0.29037        1.56735       -0.12535
H         -1.24540       -1.85824        0.06159
H         -3.69129       -2.19478        0.17065
H         -4.30494        2.09224       -0.00884
H         -1.86575        2.43653       -0.11262
H         -5.91588       -1.17856       -0.03318
H         -6.15381        0.47543       -0.11783
