27
4138102.log	Energy: -518790.5049298
C          2.72785        2.62678       -0.32613
C          3.92113        2.08913        0.17452
C          4.02718        0.71710        0.38155
C          2.94014       -0.12494        0.08038
C          1.73002        0.40519       -0.41370
C          1.64551        1.79571       -0.61302
C          0.57320       -0.44599       -0.73274
C         -0.66724       -0.19103       -0.29185
C         -1.80120       -1.06123       -0.62284
N         -3.07396       -0.88286       -0.40770
N         -3.56187        0.22928        0.20103
C         -4.98096        0.38951        0.38942
O         -5.35162        1.41022        0.94911
N         -5.84007       -0.58492       -0.09254
N          3.12884       -1.57446        0.31257
O          4.05779       -1.90469        1.03259
O          2.36684       -2.35820       -0.22994
H          2.64557        3.70332       -0.49124
H          4.76367        2.74268        0.40259
H          4.95046        0.28013        0.78157
H          0.72195        2.22331       -1.00706
H          0.80309       -1.32447       -1.35475
H         -0.87539        0.66739        0.35167
H         -1.55590       -2.01700       -1.12411
H         -2.97417        1.00755        0.52698
H         -5.50661       -1.45502       -0.48104
H         -6.82101       -0.51726        0.13440
