36
414038.log	Energy: -455060.3062548
C          0.26202        2.11824        0.11371
N          0.80398        0.76379        0.38629
C         -0.07457       -0.24636        0.80512
C          0.35702       -1.53978        0.93017
C          1.70497       -1.88862        0.58493
C          2.57430       -0.93769        0.15260
C          2.15871        0.46818        0.03726
C          3.03009        1.44404       -0.35364
C          4.40679        1.11324       -0.66041
C          4.86280       -0.14910       -0.60424
C          3.98480       -1.30496       -0.23104
C         -1.49487        0.11504        1.19817
N         -2.32275        0.41838       -0.01456
C         -2.51098       -0.75004       -0.93963
C         -3.90193       -1.31408       -0.98277
C         -4.95907       -0.57151       -0.61555
C         -4.75170        0.75802       -0.05720
C         -3.51112        1.14953        0.30854
H          1.02842        2.77416       -0.34117
H         -0.07210        2.59505        1.04947
H         -0.59128        2.07005       -0.59012
H         -0.29934       -2.32182        1.29584
H          1.99871       -2.93282        0.67997
H          2.73889        2.48484       -0.44558
H          5.05564        1.94325       -0.93721
H          5.89266       -0.40517       -0.83116
H          3.95128       -2.01995       -1.08524
H          4.45765       -1.86074        0.61013
H         -1.93379       -0.71298        1.80357
H         -1.48670        1.00535        1.86973
H         -2.25368       -0.35450       -1.95602
H         -1.76718       -1.54734       -0.72226
H         -3.98983       -2.33301       -1.34605
H         -5.98334       -0.93225       -0.67975
H         -5.61863        1.39753        0.07631
H         -3.31958        2.09027        0.83127
