29
4140224.log	Energy: -486147.3319371
C         -6.01456       -1.10110        0.03619
C         -5.94180        0.23605        0.44315
C         -4.73345        0.92980        0.38703
C         -3.57342        0.26487       -0.06708
C         -3.64076       -1.08277       -0.47151
C         -4.86380       -1.75185       -0.41818
N         -2.35834        1.00645       -0.12815
C         -1.09524        0.40480       -0.21881
C          0.04767        1.12689       -0.09084
C          1.35407        0.52343       -0.20291
C          2.50073        1.23713       -0.06417
C          3.87639        0.77491       -0.17222
C          4.34957       -0.47687        0.03422
C          5.75001       -0.75753       -0.12320
N          6.87739       -0.97871       -0.24872
C          3.56314       -1.60559        0.43057
N          2.94304       -2.52610        0.75548
O          2.36607        2.61974        0.07883
H         -6.96291       -1.63184        0.07664
H         -6.83805        0.74302        0.80234
H         -4.69212        1.97053        0.69814
H         -2.75405       -1.60171       -0.82921
H         -4.92000       -2.79425       -0.73490
H         -2.40010        1.99049        0.13609
H         -1.08716       -0.67674       -0.41843
H          0.03349        2.20392        0.10231
H          1.39848       -0.54694       -0.42403
H          4.58929        1.57154       -0.45097
H          2.99860        2.96966        0.74778
