25
4145441.log	Energy: -629779.5043773
C         -3.70535       -1.23150       -0.59423
C         -3.04249       -1.42450        0.62393
C         -2.02659       -0.55024        1.01414
C         -1.67031        0.52446        0.18571
C         -2.34363        0.72063       -1.03178
C         -3.35684       -0.15977       -1.42098
C         -0.59847        1.48857        0.54844
O         -0.55884        2.62061        0.11991
C          0.52440        1.01922        1.49389
N          1.44635        0.09686        0.81757
C          1.36527       -1.31000        0.99168
C          2.16246       -2.01751        0.16602
S          3.02636       -0.97177       -0.94276
C          2.25837        0.51624       -0.29520
N          2.50219        1.65363       -0.80859
H         -4.49512       -1.91958       -0.89719
H         -3.32160       -2.25777        1.26724
H         -1.52214       -0.70102        1.96749
H         -2.06897        1.56716       -1.66827
H         -3.87324       -0.00847       -2.36855
H          1.09730        1.91676        1.84229
H          0.10497        0.55729        2.41400
H          0.71994       -1.70491        1.77003
H          2.30772       -3.08250        0.13112
H          2.05959        2.50950       -0.48595
