27
4146893.log	Energy: -440999.5470211
C         -1.77201        2.20956        0.48707
C         -2.59782        1.19047        0.24241
C         -2.31198       -0.22678       -0.03175
C         -1.15507       -0.89458       -0.19370
C          0.17453       -0.30691       -0.12626
C          1.29229       -1.05339       -0.15551
C          2.64828       -0.48699       -0.09189
C          3.63012       -1.13629        0.67784
C          4.92192       -0.61197        0.74837
C          5.24851        0.55266        0.04525
C          4.27801        1.19567       -0.72840
C          2.98013        0.68153       -0.79683
C         -3.63762       -0.90236       -0.13082
O         -3.97314       -2.03870       -0.31220
O         -4.64780        0.07169        0.05882
N         -4.04380        1.37223        0.12796
H         -2.10149        3.21832        0.68651
H         -0.69374        2.10387        0.47978
H         -1.19969       -1.97817       -0.39644
H          0.22340        0.78769       -0.04151
H          1.25200       -2.14684       -0.21624
H          3.38231       -2.04380        1.22642
H          5.67871       -1.11286        1.35141
H          6.25832        0.95692        0.10009
H          4.53151        2.10066       -1.27916
H          2.22979        1.18187       -1.40786
H         -4.48272        1.79916        0.95359
