29
415884.log	Energy: -436959.2364346
C         -0.15051        2.22729        0.10724
N         -0.53355        0.79381        0.04455
C          0.52591       -0.16882        0.02839
N          1.75512        0.33708        0.05065
N          2.78542       -0.58120        0.04893
C          4.01578       -0.09188       -0.01611
N          4.43797        1.23526       -0.32878
N          5.09591       -1.00724        0.21518
C          0.13022       -1.58011       -0.01668
C         -1.16036       -1.96375       -0.04125
C         -2.22212       -0.97697       -0.02771
C         -3.58006       -1.35794       -0.05681
C         -4.58754       -0.40625       -0.04435
C         -4.25292        0.96167       -0.00114
C         -2.93102        1.36859        0.02924
C         -1.88550        0.40468        0.01616
H          0.46139        2.41635        1.00959
H         -1.03100        2.88965        0.13470
H          0.46370        2.49343       -0.77406
H          5.27196        1.55352        0.15201
H          3.69345        1.92755       -0.26967
H          4.78924       -1.97377        0.32260
H          5.83884       -0.95051       -0.47586
H          0.95866       -2.29544       -0.02398
H         -1.44386       -3.01674       -0.06933
H         -3.83004       -2.41927       -0.08965
H         -5.63238       -0.70476       -0.06520
H         -5.04990        1.70613        0.01009
H         -2.68741        2.43094        0.06320
