28
416284.log	Energy: -371602.2319506
C          0.06089        2.07233        1.28319
C         -0.00661        1.33129       -0.06146
C         -1.27775        0.51403       -0.13768
C         -2.48888        1.16147       -0.41632
C         -3.68397        0.44275       -0.42735
C         -3.67353       -0.93283       -0.15472
C         -2.47562       -1.58885        0.11091
C         -1.25781       -0.87547        0.11403
C          0.00550       -1.54449        0.32561
C          1.19676       -0.90518        0.13383
N          1.22238        0.47714       -0.21655
C          2.42673        1.11219       -0.52950
C          3.61756        0.44168       -0.50570
C          3.64457       -0.93509       -0.09884
C          2.48892       -1.57373        0.21604
H         -0.82848        2.69735        1.42957
H          0.94231        2.71475        1.36298
H          0.09041        1.36444        2.12385
H          0.00444        2.07720       -0.90362
H         -2.50088        2.23022       -0.62287
H         -4.62184        0.94651       -0.64476
H         -4.60959       -1.48939       -0.15566
H         -2.46944       -2.65754        0.31258
H         -0.01537       -2.59365        0.59981
H          2.36341        2.17077       -0.80420
H          4.54422        0.93322       -0.78230
H          4.60918       -1.44034       -0.04881
H          2.47431       -2.61420        0.53703
