29
416330.log	Energy: -382332.7191359
C          4.51683        0.66284       -0.49908
C          3.14229        0.30802       -0.07671
C          2.12626        1.10737        0.32749
C          0.93502        0.25377        0.70612
C         -0.43961        0.62696        0.22840
C         -0.85096        1.90922        0.06055
C         -2.23511        2.19510       -0.20554
C         -3.13985        1.17399       -0.24437
N         -2.74014       -0.15631       -0.10633
C         -1.36773       -0.51091        0.05435
C         -0.94409       -1.80939        0.00206
C          0.47523       -2.11579       -0.05193
C          1.35349       -1.12636        0.19215
N          2.77761       -1.09390       -0.00795
C         -3.77447       -1.21449       -0.09869
H          5.27152        0.14211        0.11158
H          4.70620        1.74138       -0.39483
H          4.70485        0.40135       -1.55021
H          2.11976        2.17075        0.42993
H          0.88423        0.20341        1.83278
H         -0.16171        2.74748        0.15025
H         -2.54203        3.22463       -0.34931
H         -4.20920        1.35079       -0.39221
H         -1.62025       -2.64944       -0.07637
H          0.76623       -3.11791       -0.34267
H          3.17157       -1.72413       -0.69723
H         -4.79045       -0.79020       -0.11706
H         -3.66138       -1.87045       -0.98233
H         -3.68553       -1.84033        0.80885
