32
4166963.log	Energy: -453658.2252425
C          4.53384        0.39404        0.03498
C          3.96672       -0.01865       -1.17481
C          2.71432       -0.63771       -1.18950
C          2.02467       -0.84701        0.01478
C          2.59374       -0.43313        1.22960
C          3.84616        0.18569        1.23500
C          0.72095       -1.53290        0.00742
C         -0.47261       -0.92740       -0.00998
C         -0.79034        0.52294       -0.02762
C          0.02746        1.63684       -0.06136
C         -0.57222        2.91365       -0.07096
C         -1.95644        3.05503       -0.05149
C         -2.80073        1.92627       -0.02178
C         -2.21776        0.67239       -0.00685
C         -2.81419       -0.68122        0.02719
C         -1.80270       -1.61460       -0.00569
N         -1.96146       -3.02090        0.08505
N         -4.20610       -0.93989       -0.02862
H          5.50916        0.87599        0.04311
H          4.50082        0.14416       -2.10964
H          2.26978       -0.95312       -2.13160
H          2.05502       -0.59241        2.16239
H          4.28712        0.50655        2.17750
H          0.80233       -2.62431        0.02890
H          1.11305        1.54342       -0.08168
H          0.06440        3.79634       -0.09508
H         -2.40165        4.04888       -0.06149
H         -3.87942        2.05266       -0.01882
H         -1.13526       -3.53438       -0.20303
H         -2.76415       -3.35859       -0.44033
H         -4.76964       -0.13304        0.21646
H         -4.48384       -1.73199        0.54470
