30
417622.log	Energy: -406087.4183903
C          0.04335        1.99835        1.28800
N         -0.50636        1.00966        0.32395
C         -1.92619        0.57442        0.65534
C         -2.89467        1.23804       -0.28456
C         -3.87932        0.53956       -0.87411
C         -3.96312       -0.90523       -0.72737
C         -2.95042       -1.59080       -0.14831
N         -1.90620       -0.94529        0.56966
C         -0.54224       -1.31724        0.24676
C          0.25947       -0.22328        0.20356
C          1.70565       -0.18598       -0.03399
C          2.55332       -1.05100        0.67736
C          3.92951       -1.02855        0.43836
C          4.46547       -0.14921       -0.50760
C          3.62158        0.71086       -1.21835
C          2.24534        0.69747       -0.98384
H          1.06980        2.26936        0.98441
H          0.07781        1.64736        2.33103
H         -0.56745        2.91499        1.24105
H         -2.20657        0.81498        1.71803
H         -2.73344        2.29891       -0.45097
H         -4.62019        1.01520       -1.51560
H         -4.83221       -1.40965       -1.13689
H         -2.89557       -2.68264       -0.13271
H         -0.29139       -2.35293        0.09732
H          2.13781       -1.73307        1.41738
H          4.58568       -1.69842        0.99171
H          5.53777       -0.13529       -0.69238
H          4.03833        1.39221       -1.95850
H          1.58112        1.36390       -1.53678
