21
41780.log	Energy: -459147.9785426
C          1.46191        2.17097        0.09648
C          0.73989        0.86877        0.03859
C          1.37329       -0.35452       -0.01994
C          0.67199       -1.58910       -0.07376
C         -0.69934       -1.57822       -0.07964
C         -1.41670       -0.35159       -0.01960
C         -0.72081        0.88421        0.05353
N         -1.38236        2.07841        0.14203
N         -2.87095       -0.44319       -0.03505
O         -3.38099       -1.54749       -0.10229
O         -3.52255        0.60110        0.01946
N          2.86706       -0.47609       -0.01916
O          3.50426        0.29275       -0.71783
O          3.34432       -1.35247        0.67643
H          2.55507        2.07396       -0.04280
H          1.32030        2.67588        1.06366
H          1.14843        2.85296       -0.70922
H          1.23150       -2.52794       -0.09569
H         -1.27261       -2.51491       -0.12732
H         -2.40779        2.11552        0.13527
H         -0.89280        2.95638        0.18125
