30
4179057.log	Energy: -429314.1257213
C         -2.75359        2.16733       -0.14779
N         -3.00487        0.82153        0.42900
C         -4.45065        0.41092        0.38726
C         -4.67983       -0.97437       -0.14279
C         -3.65488       -1.82778       -0.31958
N         -2.30537       -1.45461       -0.09394
C         -2.03251       -0.19075        0.16460
C         -0.61613        0.21448        0.32650
C          0.36945       -0.32604       -0.39996
C          1.78908        0.03959       -0.23607
C          2.73147       -0.97842       -0.02157
C          4.07583       -0.61449        0.11846
C          4.51023        0.72107        0.04340
C          3.55383        1.70882       -0.17391
C          2.19871        1.37883       -0.31153
O          5.06874       -1.53798        0.33879
H         -3.38971        2.90584        0.37023
H         -2.96007        2.22180       -1.22923
H         -1.70718        2.47389        0.01627
H         -4.80528        0.46192        1.44795
H         -5.05816        1.14217       -0.19073
H         -5.71093       -1.23561       -0.35231
H         -3.76178       -2.86037       -0.66239
H         -0.43016        0.95676        1.10789
H          0.16955       -1.09786       -1.15514
H          2.41787       -2.01571        0.04304
H          5.56632        0.95249        0.15585
H          3.86232        2.75315       -0.23667
H          1.46599        2.16247       -0.48342
H          4.71696       -2.46058        0.39089
