31
418491.log	Energy: -442782.6784553
C         -4.64697       -0.10860       -0.45270
C         -4.13941        1.18718       -0.39576
C         -2.78520        1.42078       -0.11265
C         -1.90059        0.36037        0.11398
C         -2.46467       -0.97422        0.07938
C         -3.80066       -1.20088       -0.20602
C         -1.43440       -1.91124        0.54165
C         -0.26459       -1.65159       -0.11799
C          0.49199       -0.60339        0.64041
C         -0.45129        0.60450        0.35200
C          0.11695        1.83382        0.26728
C          1.53690        2.02533        0.25454
C          2.39732        0.96463        0.10664
N          1.90145       -0.36519        0.19429
C          2.70474       -1.45935       -0.12616
C          4.02769       -1.29690       -0.43779
C          4.59507        0.01928       -0.44401
C          3.81502        1.10121       -0.17732
H         -5.69613       -0.27886       -0.68405
H         -4.79791        2.03649       -0.57611
H         -2.42317        2.44906       -0.08282
H         -4.18833       -2.21755       -0.23971
H         -1.51052       -2.29672        1.55106
H         -0.18914       -1.63503       -1.20181
H          0.53248       -0.77934        1.74953
H         -0.49714        2.73144        0.14494
H          1.92047        3.03838        0.28728
H          2.22587       -2.44634       -0.09322
H          4.65532       -2.15030       -0.67433
H          5.65694        0.12498       -0.66927
H          4.21370        2.11461       -0.18433
