32
418797.log	Energy: -476853.8543776
C          5.85531       -0.36219       -0.06044
C          4.45970        0.18767        0.06547
O          4.21332        1.34155        0.35458
N          3.45059       -0.76496       -0.18674
C          2.04287       -0.50426       -0.15057
C          1.49013        0.68390        0.19882
C          0.03912        0.83329        0.20194
C         -0.58387        2.00255       -0.07791
C         -2.00839        2.06434       -0.23437
C         -2.78455        0.94146       -0.12123
C         -4.22051        0.94062       -0.36528
C         -4.97731       -0.17163       -0.18440
C         -4.36336       -1.39171        0.25540
C         -3.01243       -1.42861        0.46057
N         -2.20893       -0.30140        0.27173
C         -0.72735       -0.44433        0.48723
C         -0.13822       -1.58908       -0.31779
C          1.18022       -1.62758       -0.56375
H          6.58641        0.42970        0.17706
H          6.07919       -0.70448       -1.07898
H          6.04853       -1.19057        0.63218
H          3.71861       -1.71819       -0.42601
H          2.09254        1.56431        0.44417
H         -0.01787        2.92389       -0.22606
H         -2.45740        3.02080       -0.47671
H         -4.65203        1.88214       -0.70242
H         -6.05199       -0.16798       -0.36622
H         -4.98037       -2.26844        0.42156
H         -2.50785       -2.34178        0.79626
H         -0.58833       -0.69012        1.58444
H         -0.81585       -2.36185       -0.66776
H          1.64020       -2.45201       -1.10517
