24
418721.log	Energy: -450331.4376486
C         -0.15921       -2.14504       -0.15284
C          1.15159       -1.85788       -0.20479
C          1.89032       -0.58446       -0.07882
C          1.42014        0.68624       -0.01723
C         -1.01128        0.17228        0.63375
C         -1.25748       -1.21594        0.07600
N         -2.52617       -1.45113       -0.15824
C         -3.33014       -0.21401        0.07149
O         -4.52518       -0.19422        0.06252
C         -2.31759        0.86369        0.22933
C         -2.04101        2.08444       -0.27962
C         -0.57335        2.23158       -0.36892
C          0.03631        1.07440        0.02788
C          4.34287        0.13187        0.06913
N          3.31245       -0.82586       -0.07799
O          4.13798        1.31857        0.20542
H         -0.49059       -3.18549       -0.31435
H          1.81431       -2.72248       -0.39869
H         -0.87575        0.13640        1.74331
H         -2.73041        2.82951       -0.64416
H         -0.10283        3.11437       -0.76572
H          5.34856       -0.32349        0.04555
H          3.59355       -1.80465       -0.18199
H          2.12974        1.53681       -0.00607
