27
418798.log	Energy: -381606.7179411
C          3.89956       -0.36230       -0.23520
C          3.21969        0.80418       -0.37041
C          1.79011        0.89764       -0.10213
C          1.09182        2.07193       -0.16758
C         -0.33279        2.10439        0.01703
C         -1.02973        0.97636        0.28073
C         -2.48770        0.91789        0.32328
C         -3.13007       -0.21255       -0.07158
C         -2.35221       -1.37062       -0.55226
C         -1.03081       -1.43296       -0.33318
C         -0.34829       -0.36290        0.50194
N          1.13458       -0.31581        0.26310
C          1.86092       -1.50072        0.40198
C          3.20772       -1.55144        0.17609
N         -4.54591       -0.30710       -0.16868
H          4.96924       -0.42797       -0.43202
H          3.70981        1.72369       -0.68651
H          1.60008        3.00254       -0.39187
H         -0.83172        3.06699       -0.09532
H         -3.01178        1.81893        0.62316
H         -2.88485       -2.12828       -1.12590
H         -0.41431       -2.23569       -0.72635
H         -0.48671       -0.64023        1.59135
H          1.29904       -2.38770        0.71634
H          3.76477       -2.47301        0.30410
H         -4.92659       -1.22801        0.00053
H         -5.05713        0.39570        0.34933
