26
4195514.log	Energy: -451058.3632602
C         -1.50873        2.47836       -0.82588
C         -0.23723        2.37440       -0.41397
C          0.20117        1.32428        0.57207
C         -0.72966        0.09888        0.69976
C         -2.14075        0.35384        0.18824
C         -2.50305        1.47735       -0.45992
C         -3.04374       -0.79905        0.34757
C         -2.53969       -2.04162        0.21146
C         -1.11639       -2.21853       -0.07776
C         -0.24420       -1.19847        0.09852
C          1.17966       -1.41922       -0.24742
O          1.61580       -2.43568       -0.74008
N          2.06143       -0.30272       -0.01423
C          1.67078        1.01837        0.33681
O          2.53901        1.86707        0.43909
N          3.45527       -0.62934       -0.01564
H         -1.83639        3.28363       -1.48424
H          0.53847        3.08122       -0.71796
H          0.17409        1.84742        1.58112
H         -0.82421       -0.09985        1.81107
H         -3.52928        1.65360       -0.78145
H         -4.09901       -0.59854        0.52147
H         -3.15360       -2.93778        0.28297
H         -0.79239       -3.19282       -0.45999
H          3.73923       -0.85823       -0.97920
H          3.99870        0.20322        0.26633
