30
420590.log	Energy: -499273.9999013
C         -5.46596        0.03253       -0.04819
C         -4.55380        1.08808       -0.13703
C         -3.18279        0.84424       -0.02067
C         -2.71580       -0.46393        0.18905
C         -3.63741       -1.52176        0.28592
C         -5.00517       -1.27154        0.16242
C         -1.27728       -0.74508        0.32238
C         -0.33494       -0.12115       -0.39790
C          1.10091       -0.39755       -0.25436
C          2.05129        0.61744       -0.05517
C          3.41701        0.33565        0.08324
C          3.85921       -0.99659        0.00719
C          2.91520       -2.03304       -0.20536
C          1.56810       -1.72916       -0.32422
N          5.21587       -1.30991        0.23641
N          1.65964        2.05111        0.02829
O          0.60353        2.39946       -0.47364
O          2.43698        2.80891        0.58749
H         -6.53308        0.22502       -0.14055
H         -4.91053        2.10476       -0.29725
H         -2.47503        1.67197       -0.08443
H         -3.28496       -2.53798        0.45016
H         -5.71564       -2.09367        0.23171
H         -1.02204       -1.50622        1.06530
H         -0.58530        0.65165       -1.13787
H          4.12052        1.15233        0.27088
H          3.24803       -3.06895       -0.26095
H          0.84379       -2.53145       -0.48527
H          5.54725       -2.19001       -0.13062
H          5.88293       -0.56168        0.11149
