27
420996.log	Energy: -381599.4059015
C         -4.48297        0.10231        0.34286
C         -3.88417       -1.05408       -0.16732
C         -2.50446       -1.09588       -0.37987
C         -1.71428        0.02611       -0.07880
C         -2.31786        1.18709        0.43482
C         -3.69847        1.22077        0.64280
C         -0.26661       -0.00524       -0.30271
C          0.54222        0.98485       -0.76857
N          1.91088        0.52638       -0.86329
C          2.93276        1.36090       -0.34652
C          3.94535        0.86976        0.40904
C          3.88857       -0.48867        0.92022
C          2.91017       -1.33416        0.55035
C          1.89476       -0.94978       -0.48273
N          0.46534       -1.23565       -0.07899
H         -5.55885        0.13273        0.50576
H         -4.49518       -1.92435       -0.40318
H         -2.03563       -1.99349       -0.78699
H         -1.70968        2.05756        0.67460
H         -4.16474        2.12126        1.03954
H          0.28976        1.97671       -1.09994
H          2.87588        2.40674       -0.66280
H          4.80201        1.48019        0.67593
H          4.65785       -0.78014        1.63641
H          2.81487       -2.33799        0.95358
H          2.06993       -1.50999       -1.44552
H          0.35016       -1.60825        0.86721
