27
422517.log	Energy: -404810.1758869
C         -3.07176       -2.01355        0.53604
N         -2.27352       -0.94492       -0.12979
C         -2.94412        0.30426       -0.21517
C         -2.30208        1.49347       -0.21827
C         -0.85995        1.54956       -0.02148
C         -0.14463        0.41126        0.17547
C         -0.84133       -0.94045        0.31055
C         -0.09160       -2.01480       -0.46006
C          1.24052       -1.95250       -0.59366
C          1.95189       -0.76762       -0.08686
C          1.30554        0.36420        0.28689
O          3.30114       -0.99369       -0.09155
C          4.16776        0.09460        0.32475
C         -0.23953        2.83781       -0.07176
N          0.25885        3.88178       -0.10873
H         -2.56232       -2.98482        0.42488
H         -4.05082       -2.10735        0.03590
H         -3.24484       -1.83342        1.60931
H         -4.02529        0.23348       -0.37560
H         -2.82890        2.42753       -0.39387
H         -0.76128       -1.21711        1.40868
H         -0.68756       -2.83073       -0.86616
H          1.84127       -2.71674       -1.08499
H          1.81595        1.26582        0.60906
H          4.04325        0.95262       -0.34344
H          3.96713        0.35916        1.36706
H          5.16281       -0.35433        0.21257
