25
4229945.log	Energy: -404070.5016593
C          3.82150       -0.39476       -0.69648
C          2.67285       -1.28882       -0.28291
O          1.50500       -0.41378       -0.46471
C          0.27439       -0.83838       -0.04468
C         -0.00857       -2.05334        0.47876
C         -1.31668       -2.51757        0.87626
C         -2.51060       -2.09516        0.40643
C         -2.73647       -1.07894       -0.59948
C         -1.93819       -0.03608       -0.90052
C         -0.67549        0.28755       -0.24737
C         -0.35907        1.55831        0.13135
C         -1.26553        2.64962       -0.06727
N         -2.00036        3.52699       -0.23125
C          0.88028        1.91095        0.75600
N          1.87940        2.19904        1.26215
H          3.73694       -0.08026       -1.74571
H          4.78740       -0.89693       -0.56771
H          3.84124        0.53067       -0.09579
H          2.54019       -2.16536       -0.93894
H          2.72382       -1.59004        0.77750
H          0.79636       -2.77439        0.64589
H         -1.29827       -3.33322        1.61226
H         -3.42458       -2.57330        0.77823
H         -3.68633       -1.18491       -1.14478
H         -2.24051        0.67548       -1.68009
