22
4229490.log	Energy: -623613.6039347
C          4.97658       -0.92914       -0.60543
C          3.65728       -0.57042       -0.07057
C          2.90842       -1.15974        0.90450
C          1.65648       -0.48945        1.15775
C          1.45636        0.60721        0.37027
S          2.82105        0.84000       -0.69637
C          0.34601        1.54032        0.30820
N         -0.93061        1.29582        0.25306
N         -1.40504        0.00455        0.34767
C         -2.76498       -0.14709        0.00442
N         -3.30602       -1.33101       -0.46308
N         -4.64405       -1.06847       -0.50744
N         -4.92755        0.20730       -0.11383
N         -3.82407        0.79948        0.21047
H          5.14597       -2.01857       -0.58095
H          5.78693       -0.46812       -0.01373
H          5.12371       -0.61130       -1.64942
H          3.19692       -2.04521        1.45433
H          0.97055       -0.83667        1.92173
H          0.60942        2.61703        0.30003
H         -0.80567       -0.78163        0.02961
H         -5.32020       -1.75930       -0.82234
