23
423106.log	Energy: -333348.9294602
C          2.85593       -1.46884        0.35771
N          1.49736       -1.11799       -0.13247
C          0.59693       -2.18777       -0.26371
C         -0.75007       -2.02341       -0.24873
C         -1.31450       -0.71020        0.00541
C         -0.51393        0.35758        0.25098
C          0.99775        0.20471        0.36178
C          1.70110        1.32565       -0.38260
C          1.13415        2.53932       -0.46379
C         -0.21153        2.77193        0.06727
C         -0.99808        1.73240        0.40767
C         -2.74458       -0.59768       -0.03752
N         -3.89774       -0.51792       -0.07152
H          3.54273       -0.61959        0.20063
H          3.25816       -2.31772       -0.22066
H          2.87363       -1.73375        1.42800
H          1.05006       -3.16548       -0.46621
H         -1.42677       -2.84755       -0.45069
H          1.25325        0.32766        1.45965
H          2.67236        1.09525       -0.81037
H          1.62788        3.38113       -0.94614
H         -0.54734        3.80417        0.14466
H         -2.02024        1.86510        0.76225
