27
42394.log	Energy: -474394.0476814
C         -4.52924       -0.42721        0.49482
O         -3.48587       -1.38185        0.18330
C         -2.20807       -0.88701        0.00830
C         -1.82265        0.43208        0.04180
C         -0.45295        0.76951       -0.16769
C          0.50500       -0.24260       -0.43950
C          0.05392       -1.61188       -0.44474
C         -1.25932       -1.93099       -0.23246
N          1.81387        0.06289       -0.76320
C          2.89572       -0.94134       -0.76087
C          3.39524       -1.28405        0.65570
O          4.36278       -0.32795        1.09091
N         -0.11787        2.17860       -0.06863
O         -1.00662        2.98305        0.16019
O          1.06446        2.51179       -0.20515
H         -5.40329       -1.08197        0.60816
H         -4.66730        0.26958       -0.33735
H         -4.30556        0.09329        1.43068
H         -2.52935        1.24617        0.22748
H          0.78077       -2.40165       -0.63882
H         -1.61595       -2.96369       -0.24066
H          2.12458        1.04828       -0.67503
H          2.57037       -1.86597       -1.29019
H          3.74633       -0.52554       -1.35698
H          2.57292       -1.35241        1.38958
H          3.97190       -2.23099        0.65729
H          3.93874        0.53511        1.28253
