27
42435.log	Energy: -430454.7750966
C          3.83996       -1.99362       -0.09361
C          3.60276       -0.51514        0.00453
O          4.52420        0.27268        0.06027
C          2.18863       -0.03343        0.03141
C          1.10877       -0.83414       -0.01278
C         -0.23043       -0.25791        0.00224
C         -0.35743        1.14783       -0.04204
C         -1.61456        1.78027       -0.07010
C         -2.76455        0.99908       -0.04406
C         -2.64194       -0.40164        0.01016
C         -1.39240       -1.03931        0.03293
O         -3.69479       -1.29797        0.04525
C         -5.03717       -0.76026        0.02420
O          0.71569        1.99932       -0.08808
C          2.05599        1.45800        0.13056
H          4.92015       -2.21273       -0.11474
H          3.40899       -2.42125       -1.00802
H          3.42057       -2.53645        0.76319
H          1.17898       -1.92177       -0.07239
H         -1.66631        2.86752       -0.10988
H         -3.74096        1.47662       -0.06463
H         -1.34539       -2.12614        0.07332
H         -5.21772       -0.15338        0.91601
H         -5.21013       -0.19723       -0.89734
H         -5.64431       -1.67496        0.04339
H          2.64852        1.98456       -0.64668
H          2.34095        1.82469        1.13763
