29
4243141.log	Energy: -545163.0040040
C         -5.05310       -1.04850        0.97192
C         -4.72028       -0.46979       -0.38405
O         -3.45144        0.27015       -0.31970
C         -2.30153       -0.48359       -0.25938
O         -2.26658       -1.69426       -0.31050
N         -1.23045        0.42367       -0.14653
C          0.13439        0.05828       -0.08573
C          1.14512        1.04921        0.01157
C          2.50309        0.67558        0.07430
C          2.85013       -0.67441        0.04076
C          1.85860       -1.67486       -0.05689
C          0.52800       -1.30598       -0.11872
O          4.21012       -0.89012        0.11120
C          4.67494       -2.26114        0.07842
N          0.87224        2.49393        0.05157
O         -0.29962        2.86789        0.01672
O          1.81732        3.25833        0.11744
H         -4.35761       -1.85754        1.24509
H         -6.06639       -1.46890        0.99098
H         -4.99358       -0.28939        1.76372
H         -4.63608       -1.23797       -1.17319
H         -5.39757        0.34911       -0.69424
H         -1.46923        1.44470       -0.11446
H          3.28441        1.44326        0.14919
H          2.12922       -2.73032       -0.08379
H         -0.24490       -2.08731       -0.19537
H          4.29458       -2.81625        0.94047
H          4.40659       -2.73391       -0.87047
H          5.76334       -2.12354        0.15217
