30
4254469.log	Energy: -652564.2023196
C         -4.65884       -1.48120        0.66888
C         -3.61414       -0.49712        1.21558
C         -2.91298        0.23802        0.05563
C         -3.93898        1.03935       -0.77348
C         -5.15725        0.22378       -1.09096
C         -5.48542       -0.89495       -0.43762
C         -1.85587        1.16714        0.60508
N         -0.56588        1.13260        0.48129
N          0.05571        0.19846       -0.32770
C          1.46804        0.11455       -0.12753
N          2.01887       -1.09626       -0.32630
N          3.37182       -1.18922       -0.30453
C          4.23442       -0.13408       -0.04513
S          5.85594       -0.43931       -0.04045
C          3.61876        1.15513        0.20328
C          2.26947        1.29401        0.16321
H         -4.15894       -2.39931        0.29313
H         -5.31864       -1.81681        1.49528
H         -2.87425       -1.03153        1.83875
H         -4.10811        0.23606        1.88284
H         -2.45802       -0.52898       -0.62060
H         -4.25649        1.95172       -0.22492
H         -3.46209        1.39929       -1.70765
H         -5.77639        0.62084       -1.89457
H         -6.38250       -1.46040       -0.68781
H         -2.23679        2.00596        1.21507
H         -0.40970       -0.71295       -0.49095
H          3.73253       -2.14139       -0.48870
H          4.29010        1.99457        0.41749
H          1.75731        2.24500        0.33889
