21
426483.log	Energy: -459213.9204279
C          1.06463       -1.26801       -0.20697
C          1.79374       -0.11998       -0.00709
N          0.96266        1.01017        0.22774
C         -0.36676        0.56598       -0.04786
C         -1.57051        1.21757       -0.10012
N         -2.72267        0.48441       -0.47877
N         -2.79268       -0.92836       -0.36847
C         -1.50446       -1.59007       -0.33446
C         -0.34332       -0.89458       -0.23155
O         -3.51409       -1.20363        0.83946
O         -1.65794        2.55629        0.12485
C          3.26032        0.04946        0.06090
O          3.90109        1.07543        0.06407
O          3.89144       -1.16745        0.10469
H          1.44290       -2.26909       -0.31405
H          1.25712        1.94575       -0.02779
H         -3.64297        0.91462       -0.29279
H         -1.57627       -2.67249       -0.42727
H         -2.93626       -1.60270        1.54919
H         -2.52748        2.94556       -0.15563
H          4.88596       -1.07264        0.14325
