32
426507.log	Energy: -396237.1822261
C         -4.35506        1.26874        0.25966
C         -3.51793        0.00825        0.15592
O         -2.18703        0.51956       -0.17252
C         -1.14857       -0.37594       -0.27198
C          0.10866        0.17092       -0.33288
C          0.38197        1.56760       -0.07262
C          1.64569        2.03476        0.06543
C          2.77735        1.11718       -0.06629
C          2.60509       -0.17382       -0.39473
C          1.24916       -0.75325       -0.69635
N          1.06030       -2.14663       -0.12079
C         -0.25389       -2.59055        0.04407
C         -1.34215       -1.80436       -0.20936
C          2.03781       -2.62649        0.88981
C          1.94896        3.46935        0.35404
H         -3.95211        1.95061        1.02166
H         -5.39366        1.03921        0.52014
H         -4.35336        1.82543       -0.68802
H         -3.45660       -0.54567        1.10780
H         -3.84666       -0.65472       -0.66236
H         -0.49052        2.21574        0.03237
H          3.77083        1.53012        0.10854
H          3.44665       -0.85146       -0.51373
H          1.20010       -0.93771       -1.81459
H         -0.36634       -3.63916        0.34389
H         -2.33096       -2.22957       -0.30273
H          3.03252       -2.70949        0.41757
H          2.12048       -1.94132        1.75097
H          1.76671       -3.62527        1.26449
H          1.04020        4.07259        0.47523
H          2.53365        3.57553        1.27768
H          2.53060        3.92083       -0.46151
