21
4266009.log	Energy: -355833.9784471
C         -2.35695        1.58130       -0.52559
C         -3.19746        0.56580       -0.18463
C         -2.68088       -0.72661        0.26138
C         -1.20962       -0.81899        0.27977
N         -0.43162        0.21974       -0.07141
C         -0.94388        1.41852       -0.47215
C          1.02521        0.06215       -0.02723
C          1.79281        0.91989        0.77046
C          3.18495        0.72547        0.78510
N          3.79969       -0.24626        0.06368
C          3.03459       -1.06398       -0.70413
C          1.63565       -0.94857       -0.77995
O         -3.37422       -1.67398        0.59738
H         -2.73864        2.55058       -0.85392
H         -4.28099        0.66436       -0.21878
H         -0.78444       -1.76808        0.60733
H         -0.27904        2.22944       -0.75810
H          1.33197        1.70742        1.36699
H          3.83980        1.36454        1.39356
H          3.57037       -1.83574       -1.27420
H          1.05173       -1.62493       -1.40607
