25
426613.log	Energy: -661180.4841294
C         -4.89329       -0.90720        0.40265
C         -3.56056       -0.28566        0.15590
N         -2.48728       -1.12356        0.16932
C         -1.25192       -0.59720       -0.07626
C         -1.06579        0.79819       -0.27503
C         -2.17230        1.64725       -0.29539
C         -3.43699        1.10309       -0.08813
S          0.54486        1.41963       -0.49482
C          1.47031        0.22583        0.50796
C          2.93983        0.51272        0.32328
N          3.82419       -0.42062       -0.03214
C          3.33639       -1.73066       -0.25490
N          2.08447       -2.12277       -0.24102
C          1.05677       -1.17233        0.00388
N         -0.17919       -1.51958       -0.19454
N          3.39159        1.77534        0.63375
H         -5.45948       -1.00510       -0.53682
H         -5.50097       -0.32089        1.10397
H         -4.79941       -1.92753        0.81722
H         -2.05326        2.71920       -0.46508
H         -4.32266        1.73286       -0.10685
H          1.19775        0.31522        1.59300
H          4.13181       -2.46915       -0.46936
H          2.75380        2.54820        0.74679
H          4.36356        2.00725        0.46280
