22
4272497.log	Energy: -480558.5157389
C          0.61574       -1.96108       -0.03225
C         -0.75832       -1.85881       -0.04282
C         -1.42779       -0.60276       -0.02623
C         -0.62442        0.55497       -0.03970
C          0.79762        0.46994        0.00053
C          1.44145       -0.78671        0.00049
N          2.81101       -0.82510        0.04008
N          3.61067       -1.98948        0.02142
C          1.33148        1.82954        0.01817
O          2.45974        2.26218        0.00526
N          0.15515        2.69096        0.09488
N         -1.00539        1.89844       -0.18095
N         -2.86797       -0.52702        0.02413
O         -3.51046       -1.56288       -0.01225
O         -3.36698        0.59381        0.11575
H          1.07344       -2.94527       -0.04196
H         -1.38292       -2.76390       -0.05819
H          3.37716        0.04435        0.04828
H          3.42133       -2.57377        0.84754
H          3.40848       -2.56218       -0.80941
H          0.15794        3.61320       -0.35296
H         -1.89266        2.23747        0.23063
