28
428492.log	Energy: -392396.3422500
C         -1.22706       -1.00594        1.78640
C         -1.60648       -0.90690        0.30606
C         -3.06668       -1.22200        0.12699
C         -3.94886       -0.30404       -0.29319
C         -3.48201        1.06824       -0.54231
N         -2.23921        1.44103       -0.51077
C         -1.20350        0.46982       -0.24203
N         -0.00331        0.90113       -0.47372
C          1.20711        0.17717       -0.31504
C          2.34856        0.88996        0.16526
C          3.56848        0.20808        0.18901
C          3.64608       -1.11917       -0.24854
C          2.48011       -1.74981       -0.70030
N          1.27427       -1.12547       -0.72582
C          2.23181        2.30219        0.61894
H         -1.48757       -1.98630        2.20241
H         -1.73646       -0.24200        2.38673
H         -0.14578       -0.87320        1.92625
H         -1.01997       -1.67966       -0.27646
H         -3.35418       -2.24576        0.36784
H         -5.00378       -0.51530       -0.44505
H         -4.24259        1.83580       -0.75565
H          4.46664        0.71411        0.54414
H          4.59444       -1.64919       -0.24020
H          2.48792       -2.78662       -1.05398
H          1.60640        2.38106        1.52107
H          3.19957        2.76663        0.83708
H          1.72771        2.91791       -0.14936
