31
428637.log	Energy: -419284.4070404
C          2.43642        1.94470       -0.50113
C          1.91703        0.52138       -0.75353
C          3.02685       -0.31309       -1.34883
C          3.62712       -1.31234       -0.68327
C          3.20524       -1.65349        0.66461
C          2.14458       -1.02008        1.22089
N          1.33194       -0.13430        0.47288
C          0.43612        0.72645        1.28968
C         -0.73413        1.23937        0.43662
O         -0.74727        2.40157        0.09031
C         -1.85690        0.30945        0.13566
C         -1.67158       -1.07361        0.00809
C         -2.76232       -1.89881       -0.28105
C         -4.03749       -1.34820       -0.44068
C         -4.22482        0.03353       -0.32212
C         -3.13750        0.86199       -0.04248
H          3.16112        1.97328        0.31903
H          1.61970        2.64164       -0.26464
H          2.94152        2.34193       -1.38894
H          1.05925        0.56763       -1.48258
H          3.32617       -0.01348       -2.34898
H          4.43688       -1.89570       -1.11746
H          3.75403       -2.42084        1.19764
H          1.80489       -1.24833        2.23521
H          0.03343        0.14321        2.14847
H          0.96842        1.60579        1.72404
H         -0.67500       -1.51080        0.11721
H         -2.61519       -2.97281       -0.38479
H         -4.88633       -1.99477       -0.66181
H         -5.21664        0.46306       -0.45382
H         -3.26953        1.94423        0.03417
