26
4289398.log	Energy: -674367.5624691
C          4.11198        1.98751        0.31644
C          3.23877        0.79992        0.15383
C          3.63300       -0.49742       -0.04140
S          2.22587       -1.54195       -0.17193
C          1.16130       -0.10834        0.06878
N          1.83409        1.00980        0.22605
N         -0.22034       -0.32795        0.07323
C         -1.19274        0.67578       -0.14686
O         -0.93563        1.82722       -0.40644
C         -2.62750        0.20030       -0.04144
N         -2.89725       -1.11614        0.16137
C         -4.19767       -1.47866        0.24621
C         -5.23543       -0.52175        0.12634
N         -4.96644        0.79092       -0.07681
C         -3.66301        1.15881       -0.16141
C          4.97361       -1.08653       -0.14813
H          4.64245        1.96242        1.27991
H          3.52598        2.92387        0.29632
H          4.86004        2.05430       -0.48568
H         -0.53215       -1.29604        0.24869
H         -4.40681       -2.54217        0.41040
H         -6.29339       -0.80523        0.19241
H         -3.43954        2.22511       -0.32810
H          5.14351       -1.86744        0.61076
H          5.14375       -1.54489       -1.13609
H          5.76312       -0.33045       -0.00722
