30
429807.log	Energy: -406039.3607389
C         -0.14065       -2.80199        0.01857
N         -0.10916       -1.31949       -0.09266
C         -1.25355       -0.63291        0.59797
C         -2.60451       -1.24653        0.17319
C         -3.61780       -0.55928       -0.41088
C         -3.17000        0.80167       -0.71951
C         -2.53980        1.32456        0.38677
C         -1.14749        0.89998        0.36800
C          0.02427        1.52210        0.12141
C          1.26486        0.72786        0.06306
C          2.53097        1.32778        0.05135
C          3.69381        0.56771       -0.05884
C          3.59361       -0.82330       -0.17546
C          2.35304       -1.44999       -0.16027
C          1.16098       -0.69418       -0.03098
N          0.06770        2.90222       -0.19997
H         -1.11056       -3.17835       -0.35136
H          0.01409       -3.16370        1.04739
H          0.63235       -3.25067       -0.63185
H         -1.17510       -0.78932        1.71191
H         -2.69473       -2.30991        0.38070
H         -4.57325       -0.96729       -0.69978
H         -2.89450        1.03102       -1.74235
H         -3.02672        1.44753        1.34773
H          2.61548        2.41314        0.12568
H          4.66695        1.04960       -0.06238
H          4.49841       -1.42357       -0.27565
H          2.30728       -2.53249       -0.25911
H          0.91057        3.39144        0.06590
H         -0.76643        3.42241        0.04538
