31
430403.log	Energy: -489319.6227959
C         -4.71853       -0.47976        0.81660
O         -3.88630       -0.08851       -0.30772
C         -2.54986       -0.46242       -0.17786
C         -1.56024        0.49695       -0.11917
C         -0.15750        0.10371       -0.08301
C          0.86884        1.05319       -0.01996
C          2.20897        0.64707        0.02687
C          2.53349       -0.74682        0.00991
C          3.92764       -1.11418        0.06048
C          4.88285       -0.13799        0.12501
N          4.57781        1.22993        0.14644
C          3.30952        1.59152        0.09763
C          1.50168       -1.69571       -0.05698
C          0.15966       -1.29553       -0.10392
C         -0.91503       -2.25970       -0.17467
C         -2.21463       -1.85829       -0.21084
O         -1.69457        1.86018       -0.11240
C         -3.03338        2.41865       -0.18637
H         -4.78116       -1.56910        0.88066
H         -5.68819       -0.04673        0.54655
H         -4.33142       -0.05117        1.74424
H          0.61352        2.11721       -0.00830
H          4.19199       -2.16907        0.04473
H          5.95565       -0.35389        0.16443
H          3.08644        2.66697        0.11220
H          1.74780       -2.75673       -0.07324
H         -0.65111       -3.31567       -0.20481
H         -3.03655       -2.57118       -0.28029
H         -2.82363        3.48808       -0.29870
H         -3.56925        2.01251       -1.05327
H         -3.57259        2.20183        0.73935
