30
431570.log	Energy: -499307.0871654
C          4.78282       -0.04679       -0.26016
O          3.91545        1.05552        0.03371
C          2.70861        0.49750        0.64568
C          1.47364        1.25081        0.30295
C          0.31718        0.57473        0.08494
C          0.28808       -0.90699        0.02007
C         -0.89108       -1.58602        0.03822
N         -2.13328       -0.90469        0.05971
C         -3.33146       -1.64995        0.13069
C         -4.54464       -1.03648        0.07347
C         -4.61911        0.39481       -0.07519
C         -3.48243        1.12898       -0.14320
C         -2.16391        0.51459       -0.05983
C         -0.97858        1.22309       -0.07816
N         -1.08026        2.66151       -0.24956
C          1.55929       -1.60699       -0.17006
C          2.67869       -0.90244        0.05756
O          3.95026       -1.26174       -0.32396
H          5.50573       -0.20230        0.55205
H          5.20155        0.11411       -1.26247
H          2.89497        0.49627        1.74654
H          1.56640        2.32804        0.28666
H         -0.93593       -2.67806        0.02374
H         -3.22146       -2.73351        0.23470
H         -5.46727       -1.60861        0.13476
H         -5.60451        0.85675       -0.13185
H         -3.49130        2.21899       -0.26163
H         -0.67351        3.13781        0.55521
H         -0.54759        2.94846       -1.07093
H          1.55952       -2.61909       -0.55763
