24
4328711.log	Energy: -445195.9958659
C         -1.05100        2.95139        0.07690
C         -1.04759        1.46643        0.03691
N          0.16870        0.82515        0.04564
C          0.14456       -0.55886        0.01788
N         -1.01765       -1.31660       -0.00813
C         -2.17508       -0.57605       -0.01302
N         -2.24611        0.80543        0.00782
O         -3.29271       -1.32328       -0.04300
C         -4.57063       -0.60494       -0.04347
N          1.32941       -1.28939        0.03574
C          2.69159       -0.82020        0.01362
O          3.56157       -1.67044        0.12947
N          2.97393        0.52911       -0.23770
N          4.29545        1.00630       -0.02924
H         -1.99302        3.37126       -0.31566
H         -0.21631        3.38067       -0.50271
H         -0.94143        3.31507        1.11337
H         -4.67077       -0.01929        0.87543
H         -4.63936        0.03548       -0.92869
H         -5.27584       -1.44433       -0.08171
H          1.23486       -2.32475        0.06401
H          2.26443        1.27260       -0.07613
H          4.74334        0.54703        0.77754
H          4.86601        0.74938       -0.84905
