39
432904.log	Energy: -456010.4748208
C          3.98433       -0.40572        0.47170
N          3.00493       -0.84546       -0.56640
C          3.53914       -2.03059       -1.30451
C          1.67579       -1.18173        0.04368
C          0.95719        0.10716        0.49678
C          0.60791        1.00663       -0.70371
N         -0.00983        2.27823       -0.19992
C          1.03380        3.22330        0.29753
C         -0.81877        2.92442       -1.27736
C         -0.27474       -0.26618        1.32390
O         -0.21579       -0.30260        2.53241
C         -1.53491       -0.61582        0.58690
C         -1.72623       -1.90232        0.07273
C         -2.92075       -2.21165       -0.58762
C         -3.91587       -1.23930       -0.72845
C         -3.71976        0.04658       -0.21235
C         -2.53001        0.36132        0.44820
H          4.90497       -0.06958       -0.03131
H          4.25322       -1.17235        1.21300
H          3.57197        0.46230        1.01410
H          3.70511       -2.92653       -0.68884
H          2.84615       -2.29060       -2.12043
H          4.49739       -1.75412       -1.77400
H          1.06465       -1.69407       -0.73321
H          1.75486       -1.88021        0.90529
H          1.64220        0.68211        1.17977
H          1.52569        1.16468       -1.31402
H         -0.11828        0.48289       -1.36249
H          1.74529        3.57174       -0.46508
H          0.53647        4.10271        0.73704
H          1.60546        2.73686        1.10505
H         -0.25648        3.18794       -2.18490
H         -1.64018        2.24573       -1.56171
H         -1.27871        3.84310       -0.87998
H         -0.95972       -2.66579        0.19374
H         -3.07808       -3.21334       -0.98391
H         -4.84638       -1.48394       -1.23731
H         -4.49610        0.80123       -0.32120
H         -2.36162        1.36398        0.85090
