31
4337863.log	Energy: -499460.9527432
C         -2.46187       -0.27830       -1.73086
C         -3.56642       -0.77867       -0.79327
C         -3.00453       -1.14417        0.58245
C         -2.13745       -0.04799        1.16555
O         -2.22567        0.27197        2.32821
C         -1.13565        0.66273        0.24548
C         -1.75455        0.94177       -1.13972
C          0.17290       -0.07432        0.12492
C          1.40500        0.59343        0.01335
C          2.62361       -0.09384       -0.07920
C          2.62875       -1.49893       -0.08308
C          1.39738       -2.19331        0.00091
C          0.21028       -1.48560        0.10733
N          3.84612       -2.20936       -0.08155
N          1.51160        2.07774       -0.02269
O          0.58552        2.71406       -0.50043
O          2.53764        2.57626        0.40877
H         -2.89274       -0.01968       -2.71759
H         -1.72947       -1.08535       -1.92602
H         -4.34837       -0.00037       -0.68147
H         -4.07664       -1.65664       -1.23366
H         -2.39477       -2.07340        0.51781
H         -3.82830       -1.37714        1.28940
H         -0.94662        1.66797        0.72805
H         -0.96139        1.30740       -1.82452
H         -2.46737        1.78635       -1.04680
H          3.56051        0.46903       -0.12532
H          1.38451       -3.28261       -0.00213
H         -0.73139       -2.04432        0.17473
H          3.81751       -3.16833       -0.39358
H          4.66591       -1.71673       -0.40481
