18
4338370.log	Energy: -341514.6136801
C          2.05158        1.04907       -0.00201
C          0.91841        1.82026       -0.00485
C         -0.38729        1.21732        0.00116
C         -0.47216       -0.19810        0.00622
C          0.71393       -0.98216        0.01595
C          1.96022       -0.37941        0.01294
N          3.16217       -1.14614       -0.10206
N         -1.73647       -0.91266       -0.00164
O         -2.78025       -0.25528       -0.01923
O         -1.72117       -2.13325        0.00923
N         -1.49498        2.03281        0.02390
H          3.03845        1.51688       -0.02293
H          0.99414        2.90691       -0.01635
H          0.60750       -2.07291        0.01713
H          3.04718       -2.12741        0.12615
H          3.94431       -0.76351        0.41561
H         -2.43677        1.63830       -0.01052
H         -1.40667        3.03002       -0.04697
