22
434202.log	Energy: -605273.6661097
C          3.58321       -0.25783       -0.41181
C          2.58475       -1.24467       -0.32375
C          1.30542       -0.84012        0.00538
C          1.04119        0.54078        0.24417
N          1.99208        1.50534        0.14020
C          3.25077        1.08242       -0.18004
N         -0.29315        0.84162        0.66580
C         -0.89848        2.04983        0.18127
C         -2.14997        2.07433       -0.32608
C         -2.89389        0.84703       -0.55782
C         -2.38746       -0.30754       -0.07764
C         -1.14083       -0.38337        0.75145
S         -0.13136       -1.81567        0.14908
O         -2.90190       -1.56531       -0.24684
H          4.60368       -0.53557       -0.66232
H          2.82133       -2.29165       -0.51390
H          4.00273        1.87886       -0.24823
H         -0.25658        2.93152        0.29335
H         -2.63130        3.01119       -0.59899
H         -3.81384        0.90548       -1.12815
H         -1.38826       -0.55133        1.83481
H         -3.68180       -1.56912       -0.85976
