32
43513.log	Energy: -432888.8865972
C         -3.61150       -1.92175        0.35805
C         -2.19552       -1.70648       -0.20185
C         -1.71804       -0.28204       -0.08908
C         -2.63283        0.74872       -0.07982
C         -4.07139        0.46408       -0.13514
C         -4.53483       -0.77989        0.05527
C         -2.19023        2.11879       -0.01108
C         -0.86450        2.41775        0.03854
C          0.13053        1.37055        0.01961
C          1.49854        1.67631        0.05982
C          2.46654        0.66254        0.03484
C          3.88110        0.95614        0.07191
C          4.80063       -0.04889        0.04469
C          4.37982       -1.42295       -0.02019
C          3.05531       -1.74032       -0.05511
C          2.04724       -0.70503       -0.02924
C          0.67852       -1.00777       -0.06514
C         -0.29570        0.00212       -0.04502
H         -4.02255       -2.87172       -0.03599
H         -3.56320       -2.04595        1.46294
H         -2.17393       -1.98724       -1.27856
H         -1.49606       -2.40015        0.30803
H         -4.73334        1.30422       -0.33594
H         -5.59530       -1.01778        0.02791
H         -2.94620        2.90306        0.00186
H         -0.51982        3.44929        0.09202
H          1.81390        2.71810        0.11039
H          4.18505        2.00069        0.12133
H          5.86874        0.16020        0.07179
H          5.14770       -2.19450       -0.03985
H          2.72345       -2.77631       -0.10398
H          0.36936       -2.05321       -0.10830
