27
435353.log	Energy: -381591.4074204
C         -2.27461       -2.21307       -0.05680
C         -1.11111       -1.97255        0.58295
C         -0.58386       -0.58360        0.76860
C         -1.40347        0.48924        0.11615
C         -0.84958        1.77615        0.12634
C          0.56125        1.94794        0.26599
C          1.40725        0.85221        0.15285
N          0.88193       -0.45419        0.28743
C          1.65572       -1.55461       -0.05014
C          2.98558       -1.42520       -0.38007
C          3.57839       -0.13172       -0.40265
C          2.81317        0.97172       -0.14296
N         -1.63408        2.91652       -0.03467
C         -2.64189        0.14296       -0.50686
C         -3.07162       -1.14393       -0.61145
H         -2.65971       -3.22851       -0.16133
H         -0.53651       -2.77178        1.03901
H         -0.49155       -0.36875        1.87470
H          0.98154        2.93778        0.38068
H          1.16760       -2.53800       -0.01712
H          3.58434       -2.29942       -0.61726
H          4.63972       -0.04076       -0.63768
H          3.23010        1.97671       -0.17718
H         -1.19983        3.78860       -0.28309
H         -2.59759        2.82281       -0.30999
H         -3.24163        0.95129       -0.93009
H         -4.00270       -1.39955       -1.10168
