30
435407.log	Energy: -406125.4228650
C          3.67024        1.81454        0.12640
C          2.82023        0.58908        0.04353
C          1.45560        0.61288       -0.02625
C          0.66804        1.84458       -0.04334
C         -0.67800        1.84424       -0.02426
C         -1.46035        0.60920       -0.00336
C         -2.82807        0.58176       -0.02453
C         -3.52011       -0.69382        0.02650
C         -2.81762       -1.84846        0.13872
N         -1.41086       -1.88346        0.06996
C         -0.68395       -0.64057        0.02771
C          0.68435       -0.63947       -0.06694
N          1.41160       -1.88547       -0.11023
C          2.82381       -1.84245       -0.11061
C          3.51664       -0.68766        0.03574
C         -3.66561        1.81819       -0.07822
H          3.11031        2.73781       -0.07977
H          4.50339        1.77563       -0.58886
H          4.10448        1.91593        1.13217
H          1.23129        2.77988       -0.06415
H         -1.23614        2.78025       -0.02797
H         -4.60451       -0.69708       -0.01553
H         -3.29735       -2.82754        0.22807
H         -0.95773       -2.62749        0.60451
H          0.99901       -2.59077       -0.72601
H          3.30811       -2.82113       -0.17498
H          4.59686       -0.68517        0.13924
H         -3.60072        2.37937        0.86557
H         -3.34559        2.49048       -0.88697
H         -4.72773        1.60006       -0.24995
