27
4366368.log	Energy: -666737.7871221
C          5.13847        0.53387       -0.06396
C          3.95823       -0.38173       -0.05247
O          4.03985       -1.58897       -0.16527
N          2.65047        0.20232        0.09465
C          2.47220        1.65989        0.28329
C          1.54281       -0.65853        0.04307
C          0.22341       -0.36812        0.01035
C         -0.55762        0.88106       -0.06973
O         -0.11546        2.00827       -0.16571
C         -2.02012        0.58207       -0.04053
C         -3.04493        1.52678       -0.07212
C         -4.37417        1.08281       -0.03973
C         -4.66731       -0.28477        0.01909
C         -3.64296       -1.24441        0.04939
C         -2.33477       -0.78667        0.01855
S         -0.87567       -1.76399        0.04314
H          6.06356       -0.05208       -0.21266
H          5.25822        1.08330        0.88154
H          5.09225        1.26989       -0.88094
H          2.05884        2.12819       -0.63313
H          1.74256        1.85847        1.09366
H          3.40736        2.16696        0.55268
H          1.85196       -1.73465        0.02524
H         -2.80402        2.59049       -0.12021
H         -5.18528        1.80881       -0.06037
H         -5.70707       -0.61353        0.04244
H         -3.87556       -2.30613        0.09560
