29
4369218.log	Energy: -462925.0586407
C         -4.61214       -1.34270        0.20163
C         -3.35509       -1.85798        0.25950
C         -2.21920       -0.97937        0.14160
C         -0.85753       -1.25171        0.15841
C         -0.17956       -0.00040        0.01102
C          1.02501        0.64268       -0.10569
N          0.79631        2.03272       -0.41441
N         -0.60261        2.32478       -0.15832
C         -1.23850        1.06650       -0.09426
C         -2.47689        0.47119       -0.03239
C         -3.82314        0.95824       -0.08434
C         -4.85297        0.07594        0.02807
C          2.38702        0.11020       -0.03467
C          3.39202        0.76131        0.69771
C          4.67411        0.18931        0.72895
N          4.98409       -0.96405        0.08258
C          4.00080       -1.58733       -0.61777
C          2.69221       -1.08666       -0.70140
H         -5.48668       -1.98739        0.28758
H         -3.17028       -2.92107        0.39362
H         -0.38351       -2.20350        0.27402
H          1.40737        2.71001        0.06194
H         -0.96980        2.99480       -0.85044
H         -3.98590        2.02605       -0.20881
H         -5.88786        0.40753       -0.00623
H          3.18998        1.67621        1.24703
H          5.49118        0.66058        1.28944
H          4.28643       -2.51831       -1.12371
H          1.92758       -1.61427       -1.27171
