17
438390.log	Energy: -390129.8633278
C          0.54318       -1.17538       -0.56525
C         -0.73393       -1.56513       -0.43393
C         -1.80182       -0.83908        0.26516
O         -2.56166       -1.31997        1.06467
C         -1.90952        0.63632       -0.12026
C         -0.90601        1.55044       -0.12594
C          0.48348        1.27497        0.06798
C          1.11722        0.08145       -0.11665
N          2.58748        0.05249        0.09236
O          3.11235        1.06535        0.52899
O          3.18220       -0.97428       -0.18533
O         -3.19487        0.93068       -0.41200
H          1.26755       -1.86471       -1.04082
H         -1.05651       -2.54661       -0.80749
H         -1.14986        2.60814       -0.28181
H          1.09774        2.15266        0.35658
H         -3.33109        1.88726       -0.67037
