30
438763.log	Energy: -406134.6288431
C          3.51456       -2.41409       -0.13812
C          2.84834       -1.07903       -0.03657
C          3.52511        0.09489        0.10198
C          2.80588        1.34489        0.11100
C          1.44755        1.36332        0.03493
C          0.67378        2.60459        0.01576
C         -0.67204        2.60496       -0.00877
C         -1.44652        1.36409       -0.03187
C         -2.80374        1.34597       -0.12094
C         -3.52351        0.09561       -0.11989
C         -2.84935       -1.07747        0.03110
N         -1.43263       -1.12400        0.04816
C         -0.68521        0.10665        0.02971
C          0.68492        0.10627       -0.01890
N          1.43304       -1.12275       -0.03163
C         -3.51769       -2.41161        0.13222
H          3.23720       -3.06619        0.70410
H          4.61076       -2.32255       -0.12008
H          3.25683       -2.93968       -1.06757
H          4.60455        0.12187        0.19302
H          3.38941        2.26106        0.16942
H          1.24267        3.53421        0.02834
H         -1.24068        3.53458       -0.01755
H         -3.38720        2.26170       -0.18580
H         -4.60121        0.12319       -0.22907
H         -1.01501       -1.87001        0.60642
H          1.00160       -1.88532       -0.55510
H         -3.17761       -3.09535       -0.66034
H         -3.32713       -2.89760        1.09894
H         -4.60958       -2.32687        0.02965
