30
4388418.log	Energy: -452456.5683637
C          4.06284       -2.27208       -0.06598
N          4.20444       -0.84149       -0.45312
C          5.58590       -0.34219       -0.20791
C          3.13830        0.02971       -0.08916
C          3.33956        1.43175       -0.04430
C          2.26271        2.28634        0.16942
C          0.96837        1.78700        0.34546
C          0.75944        0.40180        0.30734
C          1.83274       -0.47485        0.10428
C         -0.58851       -0.16427        0.49755
C         -1.69745        0.36209       -0.05040
C         -3.01516       -0.22564        0.15469
C         -4.13612        0.31022       -0.36100
N         -5.44956       -0.30292       -0.13443
O         -5.49859       -1.35778        0.48247
O         -6.41852        0.28731       -0.58207
H          4.87866       -2.85727       -0.52218
H          3.11804       -2.67514       -0.47194
H          4.07754       -2.44023        1.02205
H          5.75199        0.57764       -0.79681
H          5.79750       -0.12562        0.85089
H          6.31949       -1.08362       -0.56472
H          4.33123        1.85264       -0.19102
H          2.43029        3.36382        0.20092
H          0.14038        2.46721        0.52189
H          1.65016       -1.54637        0.07278
H         -0.62762       -1.06573        1.11926
H         -1.64868        1.25465       -0.68260
H         -3.06867       -1.14711        0.75794
H         -4.17320        1.22046       -0.96662
