34
4412540.log	Energy: -487768.8042652
C          4.81480       -1.80007        0.04144
N          4.46712       -0.34928        0.02207
C          3.71672        0.02692       -1.21257
C          2.24882       -0.44063       -1.23365
N          1.45962       -0.07349       -0.00848
C          2.22610       -0.41441        1.23879
C          3.69474        0.05084        1.23544
N          1.10625        1.29688       -0.02600
C         -0.24261        1.69426       -0.03155
O         -0.44494        2.90322       -0.03770
C         -1.30422        0.65982       -0.03058
C         -2.59496        1.02295       -0.00075
C         -3.69812        0.09007        0.01061
C         -5.06537        0.23303        0.10491
C         -5.63141       -1.08883        0.06222
C         -4.58195       -1.96478       -0.05424
O         -3.36861       -1.28019       -0.08939
H          5.41295       -2.03919       -0.85254
H          3.95615       -2.48544        0.07611
H          5.45428       -1.99991        0.91670
H          3.77231        1.13548       -1.29818
H          4.25500       -0.36981       -2.09943
H          2.19270       -1.54986       -1.30423
H          1.72857       -0.04562       -2.13248
H          2.16541       -1.52148        1.33456
H          1.69038        0.00239        2.11861
H          4.21602       -0.33029        2.13898
H          3.75021        1.16067        1.30118
H          1.83136        2.02077       -0.02428
H         -0.98600       -0.38778       -0.05485
H         -2.88520        2.08619        0.02306
H         -5.62270        1.14623        0.19425
H         -6.67907       -1.31631        0.11145
H         -4.47012       -3.02390       -0.12586
