28
441380.log	Energy: -511238.3020680
C         -3.95976       -2.08584       -0.30910
C         -5.05545       -1.32333        0.13962
C         -4.90332        0.01684        0.44671
C         -3.62967        0.64030        0.31978
C         -2.51869       -0.12455       -0.12779
C         -2.71544       -1.48996       -0.43627
C         -1.17202        0.42493       -0.28240
C         -0.00386       -0.20865        0.00539
C          1.29858        0.36004       -0.21455
C          2.46150       -0.25935        0.08844
C          3.73789        0.39653       -0.16592
O          3.91695        1.51780       -0.57610
C          4.96543       -0.50866        0.10981
O          5.60230       -1.17854       -0.66007
O          5.26616       -0.47057        1.44478
O         -1.20822        1.70825       -0.78143
N         -3.49245        1.96706        0.72908
H         -4.09656       -3.13623       -0.55396
H         -6.03287       -1.79905        0.24072
H         -5.75373        0.59764        0.79597
H         -1.86619       -2.07957       -0.79164
H         -0.03875       -1.20897        0.44595
H          1.32574        1.36880       -0.66163
H          2.48736       -1.25386        0.53407
H          6.06961       -1.01217        1.67716
H         -0.29636        2.09386       -0.91901
H         -2.67592        2.48857        0.43252
H         -4.32387        2.52634        0.83647
