26
441320.log	Energy: -453496.6513772
C         -3.13698       -1.75051        0.20726
C         -3.84544       -0.55647        0.21224
C         -3.17364        0.68794        0.12741
C         -1.80033        0.67639        0.04454
C         -1.06872       -0.55627        0.04770
C         -1.72364       -1.76668        0.12279
C          0.36941       -0.22490       -0.04765
C          0.53447        1.12287       -0.12247
C         -0.81757        1.81286       -0.06763
O         -1.03755        2.99215       -0.10798
C          1.83001        1.75530       -0.23872
C          2.93613        0.99570       -0.18729
C          2.90942       -0.49556        0.02651
C          1.51147       -1.19064       -0.07468
O          1.46931       -1.98162       -1.26499
O          3.45289       -0.80290        1.31578
H         -3.66949       -2.70090        0.26818
H         -4.93303       -0.56509        0.27956
H         -3.73404        1.62334        0.12685
H         -1.18020       -2.71056        0.10859
H          1.85245        2.83905       -0.37123
H          3.93767        1.41877       -0.26669
H          3.61545       -1.02259       -0.66633
H          1.42958       -1.96376        0.73343
H          1.39409       -1.41292       -2.06239
H          3.06293       -0.22670        2.00743
