33
4418719.log	Energy: -497769.0848805
C          1.28990       -2.60069       -0.38737
C          0.82840       -1.41078        0.45174
C          1.92024       -0.94174        1.45268
N          3.08309       -0.33837        0.73822
C          2.66438        0.85638       -0.06846
C          1.61537        0.37868       -1.10347
N          0.43129       -0.28568       -0.47276
C         -0.63285        0.55203       -0.07125
C         -1.97850        0.09398        0.02953
C         -3.01284        1.02366        0.26493
C         -2.71722        2.36880        0.41928
C         -1.36903        2.77020        0.30487
N         -0.36585        1.90510        0.07177
N         -2.40517       -1.29694       -0.19972
O         -3.26558       -1.47240       -1.04445
O         -1.92319       -2.17955        0.48983
C          3.89449        1.42803       -0.77723
H          0.59309       -2.80648       -1.21015
H          1.35013       -3.50765        0.22508
H          2.28561       -2.43073       -0.82123
H         -0.07144       -1.71784        1.05577
H          1.46203       -0.25535        2.19741
H          2.29314       -1.82749        2.01424
H          3.80088       -0.06907        1.41934
H          2.20046        1.65546        0.56993
H          2.06682       -0.38189       -1.78331
H          1.28488        1.22931       -1.73571
H         -4.04889        0.67096        0.31430
H         -3.49802        3.10007        0.61187
H         -1.08012        3.82556        0.41267
H          3.61715        2.22823       -1.47218
H          4.61320        1.84806       -0.06489
H          4.42381        0.65435       -1.35014
