22
44181968.log	Energy: -369022.0526331
C         -0.47927        2.39072       -0.02582
C          0.85975        2.27697        0.09868
C          1.46685        0.95744        0.05802
N          2.72549        0.61849        0.15516
C          2.78958       -0.86082        0.04936
O          3.78672       -1.51162        0.09841
C          1.34175       -1.34790       -0.12915
C          0.54866       -0.26707       -0.12417
C         -0.88488       -0.03681       -0.24542
C         -1.35318        1.23367       -0.19874
C         -1.79748       -1.21305       -0.43818
C         -2.96655       -1.22669        0.54999
O         -3.93397       -0.30597       -0.00143
H         -0.96735        3.36875       -0.00219
H          1.52858        3.12976        0.22861
H          1.12790       -2.39340       -0.23150
H         -2.43039        1.42665       -0.28840
H         -2.21336       -1.17724       -1.47528
H         -1.24566       -2.17193       -0.37115
H         -3.42786       -2.22784        0.61842
H         -2.67572       -0.87407        1.55562
H         -4.74796       -0.30815        0.53655
