20
4418723.log	Energy: -796434.8550969
C         -4.94186       -0.21209        0.03734
C         -3.54334        0.23335       -0.00294
C         -3.01852        1.49078       -0.04482
C         -1.57722        1.51951       -0.05146
C         -1.00541        0.27862       -0.01539
S         -2.24934       -0.95386        0.03156
C          0.38638       -0.09543       -0.01260
C          0.90700       -1.37709       -0.03969
S          2.62133       -1.32398       -0.02614
C          2.58208        0.42213        0.01527
N          1.36128        0.92675        0.01889
C          3.83880        1.21064        0.04458
O          4.91436        0.65987        0.02142
H         -5.32395       -0.23372        1.07302
H         -5.08933       -1.22063       -0.37874
H         -5.60202        0.46358       -0.53169
H         -3.60145        2.40116       -0.07224
H         -1.01553        2.44736       -0.08482
H          0.35910       -2.30591       -0.06653
H          3.71009        2.30500        0.08876
