30
4421616.log	Energy: -385250.5158946
C          2.59318       -0.72692       -0.29842
C          2.59907        0.71123        0.29739
C          1.26095        1.39651        0.20511
C          0.45279        1.55906        1.34997
C         -0.92784        1.68404        1.21482
C         -1.49019        1.59101       -0.08170
C         -0.65285        1.91517       -1.18205
C          0.72834        1.78798       -1.03502
C         -2.46123        0.54940       -0.42328
C         -2.46677       -0.53456        0.42047
C         -1.50162       -1.58236        0.08096
C         -0.66694       -1.90713        1.18323
C          0.71503       -1.78880        1.03679
C          1.25118       -1.40403       -0.20428
C          0.44254       -1.56548       -1.34889
C         -0.93883       -1.68183       -1.21454
H          3.36680       -1.32892        0.21872
H          2.91615       -0.67268       -1.35771
H          2.92375        0.65549        1.35600
H          3.37550        1.30772       -0.22177
H          0.89551        1.49898        2.34132
H         -1.57361        1.71782        2.08679
H         -1.08705        2.12540       -2.15525
H          1.37887        1.90076       -1.89843
H         -2.68481        0.43253       -1.48505
H         -2.69543       -0.41707        1.48104
H         -1.10283       -2.11181        2.15685
H          1.36451       -1.90281        1.90100
H          0.88613       -1.51079       -2.34018
H         -1.58440       -1.71423       -2.08673
