23
4426189.log	Energy: -436704.5115855
C         -3.99783       -1.91928        0.66390
O         -2.78049       -1.19101        0.30517
N         -3.14276        0.09642       -0.06565
C         -2.12338        0.90563       -0.25431
C         -0.67144        0.58151       -0.16724
C          0.20501        1.44583        0.50766
C          1.56217        1.13674        0.58955
C          2.03213       -0.04084       -0.01050
C          1.16382       -0.91525       -0.68115
C         -0.19198       -0.60067       -0.75502
N          3.47347       -0.37140        0.07034
O          4.20182        0.41421        0.65436
O          3.84574       -1.40844       -0.45392
N         -2.42733        2.28266       -0.50111
H         -3.58489       -2.90503        0.90505
H         -4.68436       -1.96199       -0.18548
H         -4.47456       -1.45655        1.53222
H         -0.18110        2.35581        0.97628
H          2.26019        1.79774        1.11541
H          1.55551       -1.83241       -1.13479
H         -0.88752       -1.28155       -1.25406
H         -3.42279        2.47541       -0.59923
H         -1.91179        2.67477       -1.28272
