17
444084.log	Energy: -216780.3684258
C         -2.47373        0.00038        0.00093
C         -1.53974       -1.18955       -0.00095
C         -0.25585       -0.74536       -0.00087
C          1.01561       -1.44222       -0.00005
C          2.16620       -0.73005        0.00122
C          2.16621        0.72987        0.00008
C          1.01566        1.44243       -0.00067
C         -0.25557        0.74515       -0.00038
C         -1.53944        1.18945        0.00088
H         -3.13315       -0.00045        0.88998
H         -3.13366        0.00030       -0.88792
H         -1.90366       -2.19700       -0.00219
H          0.99950       -2.52983       -0.00003
H          3.13837       -1.22069        0.00212
H          3.13880        1.21969       -0.00097
H          1.00020        2.52993       -0.00238
H         -1.90243        2.19740        0.00031
