24
4440268.log	Energy: -473595.4935338
C         -4.46335       -0.96491       -0.04150
C         -3.44709       -1.92976       -0.00906
C         -2.10669       -1.55420        0.01706
C         -1.75653       -0.19039        0.01280
C         -2.78374        0.79108       -0.02055
C         -4.13185        0.38659       -0.04776
C         -2.49589        2.18921       -0.02476
N         -2.26981        3.32416       -0.02788
N         -0.39721        0.24492        0.04375
C          0.74036       -0.59501        0.07333
O          0.66692       -1.80699        0.07684
C          2.03516        0.15967        0.10041
C          3.19000       -0.49265       -0.05077
C          4.48392        0.23419       -0.02473
O          4.70871        1.41769        0.06946
O          5.51481       -0.66593       -0.13286
H         -5.50778       -1.27261       -0.06201
H         -3.70706       -2.99066       -0.00384
H         -1.32455       -2.32437        0.04261
H         -4.91619        1.14671       -0.07436
H         -0.24757        1.26028        0.03602
H          1.99883        1.24512        0.25188
H          3.25311       -1.58250       -0.19519
H          6.41108       -0.22662       -0.12039
