27
444211.log	Energy: -381641.6786924
C         -3.64704        0.40478        0.38998
C         -3.61820       -0.96601       -0.30616
C         -2.28543       -1.63743       -0.20225
C         -1.14250       -0.92753       -0.06244
C         -1.18430        0.55542        0.03370
C         -2.36767        1.16999        0.24321
C          0.11559        1.25378       -0.06871
C          1.29755        0.53729       -0.03184
C          2.61723        1.13950       -0.07269
C          3.74453        0.39334       -0.00837
C          3.66967       -1.05295        0.10318
C          2.47862       -1.68575        0.13162
C          1.21852       -0.93348        0.04490
N          0.09533       -1.61625        0.01286
N          0.09746        2.64889       -0.13593
H         -3.83617        0.26547        1.47994
H         -4.50210        0.99796        0.01063
H         -4.41094       -1.61426        0.11798
H         -3.86838       -0.85034       -1.38435
H         -2.27282       -2.72384       -0.27045
H         -2.45983        2.24798        0.36290
H          2.67786        2.22508       -0.14649
H          4.73257        0.84553       -0.03414
H          4.60925       -1.60119        0.16428
H          2.38763       -2.76983        0.21733
H          0.95274        3.12992       -0.37155
H         -0.73872        3.11330       -0.44934
