31
4447043.log	Energy: -484470.3961938
C         -5.12362        0.26511        0.59415
N         -4.07452        0.59178       -0.40955
C         -4.08558        2.03499       -0.77399
C         -2.80828       -0.02418       -0.25101
C         -1.66985        0.48957       -0.92297
C         -0.45703       -0.18391       -0.86702
C         -0.33132       -1.38483       -0.14774
C         -1.46045       -1.90629        0.50696
C         -2.67795       -1.23938        0.46874
C          0.94569       -2.11374       -0.09018
N          2.15383       -1.67941        0.07263
C          2.51273       -0.32157        0.30032
C          3.68101        0.14387       -0.25578
C          4.18349        1.45946        0.06093
N          4.59316        2.50980        0.31099
N          4.39402       -0.54551       -1.25185
C          1.75960        0.48519        1.21497
N          1.15307        1.12296        1.96496
H         -6.08715        0.69363        0.27185
H         -4.89553        0.63868        1.60551
H         -5.26242       -0.82942        0.64664
H         -3.66250        2.68786        0.00674
H         -3.51307        2.18755       -1.70651
H         -5.11991        2.35746       -0.97766
H         -1.73744        1.41481       -1.49167
H          0.40925        0.22482       -1.39175
H         -1.37871       -2.84000        1.06574
H         -3.53213       -1.66271        0.99247
H          0.85778       -3.21272       -0.21074
H          5.38256       -0.34167       -1.32154
H          4.19154       -1.54142       -1.32355
