32
44566014.log	Energy: -512713.0665565
C          0.68969        1.19067       -0.55925
C          2.22946        1.26785       -0.52437
H          2.68292        1.06843       -1.51889
C          2.79746        0.33079        0.56580
H          3.91062        0.25983        0.49807
C          2.16956       -1.07279        0.53930
H          1.93043       -1.38886        1.59092
C          0.90906       -1.28224       -0.32376
O          0.50351       -2.42164       -0.51111
N          0.30840       -0.18797       -0.94340
C         -1.01417       -0.36606       -1.60277
C         -2.15963       -0.12289       -0.64945
C         -2.43878       -1.07048        0.34763
C         -3.49701       -0.85878        1.23356
C         -4.28107        0.29614        1.12649
C         -4.00413        1.23851        0.13223
C         -2.94318        1.03320       -0.75553
O          3.20061       -1.91490        0.01521
O          2.45161        0.83573        1.86348
O          2.62183        2.57224       -0.06709
H          0.27268        1.91576       -1.28925
H          0.27269        1.46549        0.44054
H         -1.06240        0.30506       -2.48849
H         -1.06306       -1.41528       -1.99941
H         -1.82540       -1.97273        0.42266
H         -3.71127       -1.59383        2.00842
H         -5.10517        0.45988        1.81868
H         -4.61564        2.13545        0.04807
H         -2.73507        1.77145       -1.52669
H          2.83936       -2.82828       -0.13863
H          2.63553        1.80903        1.90539
H          2.45094        3.24938       -0.75072
