32
44608004.log	Energy: -476846.4907015
C         -4.48244       -1.33009       -1.02677
C         -3.50437       -0.34487       -0.51989
C         -3.44366        1.03693       -0.72030
C         -2.29680        1.53277       -0.02790
C         -1.67403        0.44300        0.59264
N         -2.43051       -0.71081        0.29818
C         -0.46367        0.38989        1.45656
C          0.67569       -0.25912        0.77201
C          1.84668        0.21906        0.30922
C          2.46367        1.52791        0.27032
C          3.68991        1.67616       -0.27653
C          4.42898        0.54524       -0.83898
C          3.93226       -0.71046       -0.85058
C          2.61670       -0.96018       -0.28550
N          1.95414       -2.09031       -0.19584
C          0.66971       -1.78603        0.45579
O         -0.19853       -2.57530        0.68482
C         -1.85422        2.94378        0.01662
H         -5.51333       -0.96889       -0.88638
H         -4.41219       -2.30751       -0.53083
H         -4.34433       -1.50144       -2.10639
H         -4.12907        1.62474       -1.29194
H         -2.16904       -1.64809        0.56636
H         -0.19475        1.42447        1.77303
H         -0.69344       -0.15616        2.40439
H          1.90018        2.36374        0.68646
H          4.17791        2.65028       -0.32270
H          5.41448        0.76525       -1.25729
H          4.46690       -1.56607       -1.26768
H         -1.79509        3.31697        1.04817
H         -0.86446        3.06632       -0.44523
H         -2.54744        3.60286       -0.52509
