17
4479560.log	Energy: -634667.8302053
C         -0.21928        2.16001        0.00302
C         -1.00326        1.04677       -0.00195
C         -0.42510       -0.29887       -0.00199
N         -1.22632       -1.35877       -0.00153
C         -2.59737       -1.01971       -0.00041
O         -3.56973       -1.69113        0.00234
S         -2.72919        0.86923       -0.00140
N          0.98606       -0.38316        0.00039
C          1.67723       -1.63849        0.00014
N          2.98777       -1.68312        0.00399
C          3.70597       -0.46272       -0.00131
N          3.16235        0.73813       -0.00359
C          1.76085        0.87454       -0.00003
N          1.17109        2.05575        0.00328
H         -0.60110        3.19222        0.00629
H          1.05482       -2.56050        0.00103
H          4.81019       -0.56138       -0.00617
