18
4479561.log	Energy: -624633.9167849
C         -3.00969       -1.64841        0.00008
C         -1.64862       -1.62453       -0.00632
N         -0.98312       -0.37527       -0.00527
C          0.43053       -0.29569       -0.00203
N          1.23047       -1.36234       -0.00284
C          2.59838       -1.02933        0.00127
O          3.57039       -1.70381        0.00556
S          2.73936        0.85965        0.00087
C          1.01350        1.04053       -0.00020
C          0.23321        2.16074       -0.00220
N         -1.15043        2.06458       -0.00164
C         -1.75234        0.87984       -0.00087
N         -3.15024        0.77740        0.00544
C         -3.73695       -0.40207        0.00595
H         -3.55966       -2.59050        0.00002
H         -1.01229       -2.52760       -0.01030
H          0.62492        3.18928       -0.00379
H         -4.84073       -0.41214        0.01177
