30
4490492.log	Energy: -499354.6854705
C          0.72840        2.96442       -0.61759
C          0.43814        1.87899        0.41087
C         -0.34041        0.72090       -0.17654
C          0.29723       -0.40158       -0.57889
C          1.72600       -0.54800       -0.36957
C          2.47438       -1.63119       -0.86671
C          3.83042       -1.74072       -0.57307
C          4.46501       -0.77726        0.23171
C          3.75849        0.30755        0.73793
C          2.39156        0.41468        0.42063
O          1.73496        1.48052        0.97482
C         -1.76922        0.95880       -0.33226
C         -2.77085        0.07376       -0.14247
C         -4.13081        0.46594       -0.33558
N         -5.23288        0.78396       -0.48531
C         -2.58178       -1.36372        0.25444
O         -1.98183       -2.18805       -0.41410
N         -3.14879       -1.71817        1.47137
H          1.49554        3.65663       -0.24087
H         -0.16175        3.55342       -0.85945
H          1.11604        2.54467       -1.55544
H         -0.04566        2.28659        1.33055
H         -0.23449       -1.23914       -1.05530
H          1.98028       -2.38635       -1.48043
H          4.40586       -2.57820       -0.96189
H          5.52695       -0.88315        0.45877
H          4.22875        1.06278        1.36262
H         -2.02745        1.99300       -0.61609
H         -3.65923       -1.07599        2.05126
H         -3.07759       -2.66993        1.80067
