24
449125.log	Energy: -426802.4623278
C          1.96361        1.27937       -0.02277
C          0.57922        1.09542        0.00845
C          0.05550       -0.19571       -0.15069
C          0.91392       -1.29937       -0.33916
C          2.29040       -1.09671       -0.36875
C          2.82650        0.19301       -0.21062
C          4.31943        0.40069       -0.26412
N          5.01714       -0.58628        0.61621
N         -1.35833       -0.45977       -0.14765
C         -2.34685        0.48353        0.10993
O         -2.18706        1.65538        0.35517
C         -3.77662       -0.11015        0.00089
O         -4.76293        0.36748       -0.48085
O         -3.78208       -1.36096        0.57218
H          2.36477        2.28566        0.10195
H         -0.08134        1.95565        0.15774
H          0.51421       -2.30402       -0.46129
H          2.96793       -1.94394       -0.50823
H          4.67495        0.22081       -1.30905
H          4.57920        1.45612       -0.02594
H          5.99242       -0.32469        0.72769
H          4.60181       -0.59050        1.54396
H         -1.63372       -1.44643       -0.24409
H         -4.68601       -1.78203        0.58633
