19
45077401.log	Energy: -523761.6058738
C         -3.14359        0.71075        0.00117
N         -1.95331        1.54826        0.00306
C         -0.83091        0.89237        0.00013
C          0.49494        1.53268       -0.00062
C          1.57873        0.74189       -0.00127
C          3.02605        1.05475       -0.00217
C          3.71228       -0.11569        0.00133
C          2.76420       -1.25538        0.00237
C          1.49808       -0.76223        0.00058
C          0.19295       -1.39810       -0.00098
C         -0.88774       -0.60390       -0.00122
S         -2.57337       -1.06794       -0.00104
H         -3.76303        0.90317        0.90274
H         -3.76168        0.90602       -0.90086
H          0.52831        2.62228       -0.00198
H          3.40700        2.05890       -0.00526
H          4.77910       -0.25643        0.00211
H          3.08238       -2.28140        0.00410
H          0.14513       -2.48612       -0.00160
