18
45076955.log	Energy: -533799.1497999
C         -3.12913        0.70907        0.00224
N         -1.93979        1.54531        0.00185
C         -0.81710        0.89159        0.00007
C          0.50658        1.53624       -0.00154
C          1.58435        0.73603       -0.00101
C          1.50706       -0.77633        0.00059
C          2.78355       -1.23413        0.00185
C          3.66224       -0.02526        0.00074
N          2.98395        1.10424       -0.00167
C          0.20224       -1.40747       -0.00011
C         -0.87537       -0.60751       -0.00013
S         -2.56016       -1.06891       -0.00168
H         -3.74800        0.90343        0.90516
H         -3.75106        0.90591       -0.89784
H          0.55475        2.62790       -0.00282
H          3.15464       -2.23968        0.00549
H          4.74558       -0.07953        0.00089
H          0.15104       -2.49587       -0.00142
