17
45079761.log	Energy: -284282.6542786
C         -1.31666       -1.53200        0.04436
C         -0.09255       -0.66484        0.02228
C          1.17434       -1.04930       -0.00793
C          2.56986       -1.41922       -0.03420
C          2.34457       -0.10969       -0.01520
C          2.10025        1.31083        0.00556
N          0.86260        1.72575        0.02620
C         -0.26500        0.82523        0.01845
C         -1.50780        1.35955       -0.00753
C         -2.66844        0.45403       -0.03858
N         -2.61079       -0.83812       -0.01927
H         -1.32415       -2.15464        0.97570
H         -1.28756       -2.25947       -0.80658
H          3.23503       -2.23669       -0.05269
H          2.92904        2.02885        0.00677
H         -1.68507        2.43359       -0.01074
H         -3.66142        0.92742       -0.08433
