18
45077423.log	Energy: -533807.5680251
C          3.12770        0.70993        0.00274
N          1.93975        1.54919        0.00162
C          0.81664        0.89653        0.00012
C         -0.50676        1.54719       -0.00132
C         -1.59071        0.76071       -0.00131
C         -3.04088        1.01546       -0.00191
C         -3.65966       -0.19798        0.00120
N         -2.71064       -1.30005        0.00267
C         -1.50893       -0.75972        0.00062
C         -0.20167       -1.40253        0.00004
C          0.87354       -0.60227       -0.00057
S          2.55821       -1.06616       -0.00206
H          3.75164        0.90803       -0.89598
H          3.74559        0.90465        0.90682
H         -0.53427        2.63821       -0.00192
H         -3.47607        1.99596       -0.00532
H         -4.71161       -0.44264        0.00221
H         -0.16605       -2.49352       -0.00065
