17
45077559.log	Energy: -543837.4712761
C         -2.57701       -1.35852        0.00908
N         -1.15758       -1.66334        0.01298
C         -0.38487       -0.62195        0.00034
C         -1.02382        0.73726       -0.00406
C         -0.35301        1.90217        0.00548
C          1.10771        1.91005        0.00736
C          1.76738        0.73440        0.00392
C          1.07716       -0.62135       -0.00139
N          1.97792       -1.57837       -0.00698
C          3.26703       -0.87072       -0.00627
N          3.17218        0.44799        0.00149
S         -2.75227        0.49848       -0.01055
H         -3.07404       -1.77724        0.91280
H         -3.07050       -1.79528       -0.88841
H         -0.85911        2.86943        0.00959
H          1.62745        2.87144        0.00887
H          4.18145       -1.45599       -0.01310
