19
45077555.log	Energy: -783254.3469758
C          3.08689       -1.39983        0.00168
N          1.65306       -1.63999        0.00162
C          0.92204       -0.56619        0.00031
C          1.62147        0.75094       -0.00144
C          0.99283        1.93567       -0.00325
C         -0.46347        1.95862       -0.00230
C         -1.17362        0.80902       -0.00023
C         -0.57322       -0.54065       -0.00055
N         -1.21413       -1.67571       -0.00198
C         -2.62142       -1.76430       -0.00220
C         -3.46807       -0.71880       -0.00211
S         -2.91746        0.92150        0.00416
S          3.34320        0.44840        0.00047
H          3.55866       -1.84493        0.90447
H          3.56002       -1.84771       -0.89893
H          1.51842        2.89051       -0.00525
H         -0.94115        2.94060       -0.00275
H         -2.96572       -2.80995       -0.00396
H         -4.55504       -0.82390       -0.00454
