15
45080271.log	Energy: -306723.6886733
C         -2.18743        0.72838       -0.71167
C         -2.17453       -0.73754       -0.70281
C         -1.20938       -1.09295        0.27444
C          0.21364       -0.76182        0.10866
C          0.20727        0.78177        0.10050
C         -1.20373        1.06257        0.24948
O         -1.52998        0.00403        1.22400
C          1.41963        1.40499       -0.02865
N          2.57531        0.65834       -0.18986
C          2.49818       -0.68125       -0.17819
N          1.33424       -1.43996       -0.01686
H         -2.75747        1.35594       -1.36570
H         -2.73485       -1.37270       -1.36327
H          1.55366        2.49365        0.00852
H          3.42970       -1.26269       -0.29503
