19
45099157.log	Energy: -321261.6013037
C         -3.41533       -0.00677       -0.00498
C         -2.67169        1.13153        0.00327
C         -1.24741        0.74992        0.00549
C         -0.12383        1.49526        0.01058
C          1.14220        0.79260        0.01613
C          2.44809        1.16647       -0.00100
N          3.28954        0.00707       -0.13014
O          2.44528       -1.15848        0.01847
C          1.12002       -0.69093        0.01470
C          0.02045       -1.46955        0.00030
C         -1.24139       -0.76358       -0.00042
C         -2.53393       -1.19068       -0.00643
H         -4.48796       -0.08958       -0.01042
H         -3.00739        2.14970        0.00526
H         -0.12221        2.58180        0.00945
H          2.89580        2.15038       -0.02575
H          4.01313       -0.10924        0.58571
H          0.03757       -2.55245       -0.01519
H         -2.90111       -2.19795       -0.01166
