27
45093311.log	Energy: -441047.6999516
C          5.58654       -0.92529        0.24345
C          4.55017       -0.44441       -0.43762
C          3.12721       -0.84316       -0.15314
N          2.25769        0.36512       -0.19641
C          0.88602        0.23206        0.00445
C          0.15973       -0.91348       -0.07806
C         -1.29535       -0.91409       -0.01258
C         -2.00534       -2.12684        0.07812
C         -3.39864       -2.12416        0.13161
C         -4.11375       -0.91931        0.08511
C         -3.42559        0.28831       -0.01722
C         -2.02216        0.29954       -0.05520
C         -1.31129        1.58551       -0.18636
O         -1.77581        2.60976       -0.61750
C          0.16906        1.54171        0.28397
O          0.70009        2.45093        0.86605
H          5.50441       -1.61871        1.06896
H          6.61194       -0.65944        0.02035
H          4.67318        0.25792       -1.26670
H          2.78610       -1.55809       -0.94408
H          3.03168       -1.37692        0.82150
H          2.68609        1.20726        0.20642
H          0.63933       -1.88150       -0.20788
H         -1.46250       -3.06961        0.10799
H         -3.93881       -3.06907        0.20770
H         -5.20124       -0.92817        0.12365
H         -3.96786        1.23665       -0.07057
