18
45099179.log	Energy: -331298.0887987
C         -3.38246       -0.05735       -0.00690
C         -2.67075        1.10272       -0.00273
C         -1.23790        0.76777        0.00471
C         -0.12088        1.52279        0.01067
C          1.14167        0.81483        0.01828
C          2.45868        1.14090        0.00725
N          3.25007       -0.04746       -0.12910
O          2.37776       -1.18953        0.00859
C          1.06834       -0.67623        0.01306
N          0.02805       -1.46108        0.00519
C         -1.19706       -0.75135        0.00238
C         -2.47511       -1.22057       -0.00273
H         -4.45340       -0.16723       -0.01360
H         -3.03764        2.11081       -0.00541
H         -0.12045        2.60927        0.00897
H          2.94564        2.10773       -0.00883
H          3.99300       -0.20234        0.55827
H         -2.80319       -2.24317       -0.00463
