19
45099154.log	Energy: -321261.3979718
C         -3.42256       -0.00757       -0.00079
C         -2.67675        1.13092        0.01316
C         -1.25478        0.74712        0.00925
C         -0.12562        1.48474        0.00880
C          1.13465        0.77677       -0.00065
C          2.43612        1.16432       -0.01031
O          3.30843        0.07891        0.00926
N          2.51227       -1.13025       -0.10256
C          1.13136       -0.70985       -0.00179
C          0.01315       -1.46707       -0.00166
C         -1.24899       -0.76111       -0.00264
C         -2.54259       -1.18993       -0.01028
H         -4.49507       -0.08812       -0.00486
H         -3.01149        2.14918        0.02295
H         -0.11793        2.57144        0.01017
H          2.95652        2.10293       -0.03546
H          2.84617       -1.71617        0.67167
H          0.01349       -2.55157       -0.01770
H         -2.90891       -2.19713       -0.02147
