21
45121589.log	Energy: -332626.7416732
C         -3.30550       -0.74213        0.00982
C         -3.22982        0.76872       -0.00364
N         -2.13430        1.45725       -0.00942
C         -0.88297        0.76491       -0.00343
C          0.27261        1.47135        0.00094
C          1.53283        0.76261        0.00358
C          2.82855        1.17635        0.00701
C          3.70151       -0.01991        0.00187
C          2.94159       -1.14470       -0.00434
C          1.51820       -0.73915       -0.00253
C          0.38307       -1.45091       -0.00575
C         -0.91395       -0.73717       -0.00194
N         -2.00909       -1.43413        0.00412
H         -3.87005       -1.09684        0.90894
H         -3.88688       -1.11266       -0.87190
H         -4.18913        1.30426       -0.00863
H          0.28215        2.56339        0.00170
H          3.20995        2.18052        0.01338
H          4.77495        0.05199        0.00288
H          3.25786       -2.17080       -0.00948
H          0.34818       -2.54151       -0.00943
