19
45122561.log	Energy: -321299.0423696
C         -3.31712        0.00459        0.00221
C         -2.41478        1.21083        0.00153
C         -1.13203        0.79925       -0.00255
C          0.14635        1.49766       -0.00290
C          1.25814        0.74515        0.00059
C          2.71371        1.07610        0.00133
N          3.44732       -0.01517        0.00124
C          2.55699       -1.15910       -0.00011
C          1.25175       -0.76204        0.00071
C         -0.00782       -1.46602       -0.00051
C         -1.11439       -0.69519       -0.00218
O         -2.41517       -1.17265       -0.00055
H         -3.92885       -0.10362        0.91362
H         -3.93361       -0.10223       -0.90598
H         -2.80888        2.21236        0.00386
H          0.14778        2.58557       -0.00651
H          3.10523        2.08326        0.00353
H          2.98912       -2.14486       -0.00232
H         -0.02548       -2.55041        0.00086
