21
45121707.log	Energy: -332598.4290107
C          3.49269       -0.00125        0.82078
C          2.84769       -0.78791       -0.31105
C          1.34898       -0.75240       -0.17584
C          1.34903        0.75312       -0.17405
C          2.84781        0.78889       -0.30894
N          0.28210        1.48629       -0.11850
C         -0.91741        0.71578       -0.03824
C         -2.14849        1.41399        0.03659
C         -3.33376        0.70686        0.11040
C         -3.33325       -0.70780        0.11290
C         -2.14772       -1.41418        0.03811
C         -0.91717       -0.71532       -0.03882
N          0.28218       -1.48566       -0.12154
H          3.05042       -0.00281        1.81798
H          4.58124       -0.00200        0.89005
H          3.36131       -1.49430       -0.93873
H          3.36120        1.49720       -0.93461
H         -2.13313        2.50604        0.03428
H         -4.28506        1.23622        0.16829
H         -4.28419       -1.23735        0.17486
H         -2.13219       -2.50617        0.03703
