14
45120839.log	Energy: -711232.6029167
C          1.14974        2.10416       -0.00150
C          2.24903        1.30652        0.00281
C          1.86806       -0.14960        0.00360
S          2.83523       -1.40253       -0.00338
C          0.40985       -0.12344        0.00543
C         -0.02409        1.22184        0.00037
N         -1.41286        1.22431       -0.00286
C         -1.85598       -0.12334       -0.00060
S         -3.42801       -0.61147       -0.00093
N         -0.71867       -0.94573        0.00376
H          1.09451        3.17910       -0.00458
H          3.28490        1.60843        0.00249
H         -2.02786        2.02637       -0.00404
H         -0.72600       -1.95686        0.00817
