18
45120288.log	Energy: -331338.0839348
C         -3.28235        0.09371        0.00132
N         -2.36559        1.24691        0.00243
C         -1.14635        0.79440        0.00103
C          0.13549        1.50164       -0.00033
C          1.23965        0.74191       -0.00151
C          2.69981        1.07567       -0.00221
N          3.43236       -0.01334        0.00136
C          2.54072       -1.16083        0.00264
C          1.23632       -0.76594        0.00061
C         -0.01969       -1.48197       -0.00096
C         -1.12782       -0.72048       -0.00088
O         -2.43682       -1.14209       -0.00329
H         -3.89228        0.03374        0.92291
H         -3.89778        0.03669       -0.91619
H          0.12643        2.59152       -0.00214
H          3.08806        2.08552       -0.00549
H          2.97595       -2.14672        0.00384
H         -0.02790       -2.56769       -0.00143
