17
45121139.log	Energy: -341311.8570630
C         -0.12634       -1.49205        0.01329
C         -1.23909       -0.73964        0.00322
C         -2.69267       -1.07343        0.00846
N         -3.42881        0.01787        0.00411
C         -2.54050        1.16113       -0.00760
C         -1.23411        0.76402       -0.00928
C          0.02193        1.47969       -0.01067
C          1.14369        0.73338        0.00791
C          1.14025       -0.77587        0.00579
N          2.38355       -1.21196       -0.00642
O          3.25251       -0.17389       -0.01596
N          2.53100        1.10012       -0.08547
H         -0.11031       -2.58214        0.01871
H         -3.08446       -2.08200        0.01210
H         -2.97333        2.14805       -0.01591
H          0.01494        2.56625       -0.03804
H          2.89408        1.65542        0.69861
