25
453241.log	Energy: -437938.9376551
C          3.57689       -1.27233       -0.35080
C          3.83819        0.06913       -0.64889
C          2.85523        1.03462       -0.44573
C          1.58967        0.67811        0.06765
C          1.32808       -0.67919        0.37020
C          2.32951       -1.64402        0.14587
N          0.09994       -1.11411        0.98347
C         -1.13042       -0.80709        0.34625
C         -1.51782        0.50141       -0.01372
C         -2.80626        0.67747       -0.55960
C         -3.65475       -0.41141       -0.72639
C         -3.20844       -1.68111       -0.31291
N         -1.97708       -1.88780        0.20234
C         -0.74316        1.73068        0.25418
O         -1.27709        2.81763        0.43040
N          0.66540        1.73880        0.28425
H          4.34549       -2.02774       -0.50925
H          4.81148        0.36139       -1.04263
H          3.06780        2.07641       -0.68743
H          2.13084       -2.69311        0.36925
H          0.14383       -2.09191        1.32268
H         -3.12952        1.68907       -0.83392
H         -4.64646       -0.28801       -1.15393
H         -3.84753       -2.56999       -0.40216
H          1.08266        2.66701        0.44705
