26
4558530.log	Energy: -425015.4216169
C         -2.47685        2.24568        0.07910
C         -2.74146        0.80500        0.19306
N         -3.89198        0.22871        0.55248
O         -3.70638       -1.14497        0.52950
N         -2.42894       -1.44727        0.15747
C         -1.78335       -0.30103       -0.06474
C         -0.37093       -0.12217       -0.50095
O          0.08737        0.97240       -0.80310
N          0.38343       -1.28584       -0.60165
N          1.75351       -1.29020       -0.97072
C          2.62737       -1.02346        0.16178
C          3.35880        0.09652        0.33020
C          4.35058        0.19918        1.44395
C          3.25144        1.28588       -0.56401
H         -1.49804        2.43837       -0.41027
H         -2.44543        2.73222        1.06860
H         -3.25012        2.76412       -0.51117
H          0.03862       -2.20737       -0.31475
H          1.89915       -0.58338       -1.72186
H          2.69111       -1.87271        0.84528
H          5.36304        0.38384        1.05611
H          4.10378        1.03458        2.11588
H          4.40282       -0.70621        2.06269
H          3.74816        1.11789       -1.52918
H          2.19283        1.53991       -0.77616
H          3.70054        2.18789       -0.12978
