25
4568516.log	Energy: -380935.9629204
C          0.05627        2.73555       -0.01150
C          1.22887        2.02114       -0.00635
C          1.21486        0.59303        0.00357
C          2.42727       -0.19633        0.01005
C          2.36194       -1.58994        0.01352
C          1.11495       -2.24027        0.00143
C         -0.06923       -1.51986       -0.00317
C         -0.03323       -0.08421        0.00017
C         -1.25103        0.68213       -0.00016
C         -1.19409        2.06233       -0.00603
C         -2.56300       -0.02358        0.00543
N         -3.65074        0.68192        0.02545
C         -2.52107       -1.50363       -0.01099
C         -1.36526       -2.18878       -0.01364
N          3.68023        0.43435       -0.05952
H          0.06392        3.82454       -0.02236
H          2.18429        2.54577       -0.01923
H          3.26851       -2.18867        0.01262
H          1.09668       -3.33179       -0.00180
H         -2.11776        2.65297       -0.00668
H         -4.54527        0.20046        0.02845
H         -3.48295       -2.01289       -0.02061
H         -1.35518       -3.28111       -0.02555
H          3.74458        1.40188        0.21717
H          4.49327       -0.11066        0.18260
