28
4568041.log	Energy: -498596.7530422
C          4.65450        0.58000        0.00535
C          4.60966       -0.78903        0.22961
C          3.37342       -1.48089        0.28689
C          2.21885       -0.75371        0.11699
C          2.26820        0.65712       -0.11489
C          3.46733        1.33238       -0.17327
C          0.86372        1.11632       -0.25567
C         -0.01147        0.07027       -0.09800
C          0.77293       -1.20035        0.12161
O          0.35387       -2.31720        0.24835
N         -1.42674        0.15897       -0.14708
C         -2.10131        0.77953        0.94148
C         -3.44600        0.72352        1.04367
C         -4.26793       -0.04861        0.09164
N         -5.55903        0.00457        0.19895
C         -3.49308       -0.81506       -0.90324
C         -2.14467       -0.73616       -0.97454
O          0.62601        2.41748       -0.48096
H          5.61512        1.09609       -0.03632
H          5.53487       -1.35153        0.36442
H          3.34540       -2.55762        0.46259
H          3.50897        2.40688       -0.34990
H         -1.47007        1.32035        1.65092
H         -3.98477        1.23795        1.84142
H         -6.12294       -0.53034       -0.45408
H         -4.04732       -1.46273       -1.57675
H         -1.54645       -1.31432       -1.68707
H         -0.35630        2.59646       -0.62329
