25
459279.log	Energy: -463527.3245929
C         -3.68161       -1.33828        0.30286
C         -2.33921       -1.70524        0.26041
C         -1.34879       -0.72135        0.00797
C         -1.71519        0.61066       -0.20650
C         -3.07983        0.93697       -0.15185
C         -4.07900       -0.01286        0.10007
O         -3.36034        2.25984       -0.36902
N         -0.00454       -1.18842       -0.04531
C          1.17568       -0.45448       -0.00005
C          1.32665        0.88083        0.15449
C          2.63392        1.54322        0.17839
O          2.78135        2.73210        0.36197
C          3.83920        0.66069       -0.04501
C          3.72950       -0.66065       -0.18290
C          2.41770       -1.35040       -0.13011
O          2.29618       -2.55423       -0.18152
H         -4.44009       -2.09931        0.49924
H         -2.05997       -2.74224        0.42618
H         -0.99091        1.39997       -0.42011
H         -5.12585        0.26300        0.13805
H         -4.33128        2.45113       -0.33482
H          0.11058       -2.21724       -0.06965
H          0.47358        1.55970        0.27822
H          4.79611        1.18901       -0.07891
H          4.58794       -1.32143       -0.33906
