26
4606356.log	Energy: -474332.9754560
C         -4.76351       -0.50447        0.00472
C         -3.85555       -1.75736        0.00487
N         -2.44231       -1.29462       -0.00342
C         -2.40043        0.01196       -0.00204
C         -3.80971        0.66678        0.00339
O         -4.03662        1.84255        0.00380
N         -1.29686        0.86333       -0.00965
C          0.07090        0.49495       -0.00440
C          0.51796       -0.84038       -0.00028
C          1.88319       -1.10476        0.00092
C          2.81578       -0.05114       -0.00120
C          2.36513        1.28148       -0.00519
C          1.00546        1.56187       -0.00597
C          4.24668       -0.37784        0.00101
O          4.79521       -1.45798       -0.01046
O          5.03217        0.76222        0.01848
H         -5.43357       -0.46879        0.88417
H         -5.43155       -0.46915       -0.87687
H         -4.01667       -2.39345        0.90120
H         -4.02611       -2.40039       -0.88436
H         -1.51840        1.86651       -0.01406
H         -0.19263       -1.67323        0.00131
H          2.24291       -2.13945        0.00398
H          3.09803        2.09480       -0.00642
H          0.66891        2.59630       -0.00725
H          6.00180        0.54509        0.02027
