26
460764.log	Energy: -497806.9015881
C          3.70159       -0.69722        0.00138
C          2.49735       -1.42851        0.00046
C          1.30760       -0.72391       -0.00086
C         -0.08967       -1.17955       -0.00093
C         -0.90433        0.00016       -0.00024
C         -2.30159        0.00034        0.00075
C         -2.90089       -1.29674        0.00177
C         -2.12094       -2.42698        0.00053
N         -0.68699       -2.40301       -0.00084
O         -0.07028       -3.47385       -0.00164
C         -2.90079        1.29743        0.00061
C         -2.12032        2.42737        0.00042
N         -0.68636        2.40316       -0.00053
O         -0.06932        3.47375       -0.00137
C         -0.08907        1.17954       -0.00062
C          1.30790        0.72362       -0.00088
C          2.49776        1.42793        0.00023
C          3.70192        0.69651        0.00127
H          4.64728       -1.23883        0.00172
H          2.49924       -2.51939        0.00058
H         -3.98995       -1.38621        0.00337
H         -2.55204       -3.43520        0.00042
H         -3.98976        1.38737        0.00097
H         -2.55118        3.43570        0.00112
H          2.49978        2.51872        0.00012
H          4.64782        1.23769        0.00200
