24
4612493.log	Energy: -483631.4546638
C         -1.39152        3.41186       -0.69836
C         -1.54565        1.96984       -0.23387
N         -0.19780        1.35557       -0.08293
C          0.10164        0.03719       -0.01027
C          1.49669       -0.37140       -0.01756
C          1.84855       -1.70714       -0.28268
C          0.88095       -2.68051       -0.50258
C         -0.46303       -2.34846       -0.34943
C         -0.85977       -1.03901       -0.03265
N         -2.26035       -0.88799        0.35046
O         -2.55043       -0.02979        1.17276
O         -3.06848       -1.65624       -0.14882
N          2.59281        0.54941        0.23099
O          2.34075        1.74959        0.35884
O          3.72251        0.09563        0.29961
H         -0.86945        4.03812        0.03825
H         -2.37929        3.86906       -0.85647
H         -0.84675        3.49363       -1.64856
H         -2.09168        1.93026        0.74725
H         -2.14726        1.38998       -0.97086
H          0.57813        2.05101        0.02584
H          2.91694       -1.97363       -0.31389
H          1.17098       -3.69917       -0.75787
H         -1.23616       -3.12602       -0.44800
