26
4626967.log	Energy: -554393.9868382
C          4.19167       -0.57764        1.71790
N          3.26721       -0.08082        0.67892
C          2.73680       -0.93729       -0.26588
O          2.97114       -2.13374       -0.29615
C          1.80983       -0.27082       -1.28945
C          0.40066       -0.28287       -0.79868
C         -0.27823        0.86611       -0.33486
C         -1.62557        0.79184        0.06673
C         -2.28066       -0.43811        0.03164
C         -1.61292       -1.60347       -0.39910
C         -0.29061       -1.51290       -0.80873
N         -3.69729       -0.52641        0.45832
O         -4.22513        0.49764        0.85124
O         -4.23207       -1.61826        0.38563
N          0.36136        2.19532       -0.23666
O          1.58311        2.24980       -0.18858
O         -0.37145        3.16482       -0.19575
H          3.78763       -0.37791        2.72455
H          5.17829       -0.09283        1.62492
H          4.34077       -1.67230        1.62054
H          3.05142        0.91696        0.68667
H          2.17425        0.74847       -1.55655
H          1.89680       -0.84952       -2.24210
H         -2.15712        1.69909        0.40610
H         -2.14718       -2.56388       -0.40544
H          0.24568       -2.41587       -1.13136
