33
46662.log	Energy: -464431.4026913
C          5.31746        0.42878        0.58058
N          4.33294       -0.31870       -0.25367
C          4.58910       -1.78517       -0.20356
C          2.97002        0.08778       -0.09918
C          1.91863       -0.79648       -0.04159
C          0.55932       -0.32252       -0.04120
N         -0.45095       -1.23585        0.00552
C         -1.73545       -0.78680        0.01700
C         -2.07893        0.60881       -0.01458
C         -1.02606        1.53873       -0.06389
C          0.29911        1.09578       -0.07876
C          1.42881        1.99183       -0.13279
C          2.70167        1.51846       -0.14126
C         -3.46020        0.99323        0.00954
C         -4.44344        0.03076        0.05177
C         -4.10155       -1.37960        0.07861
C         -2.80154       -1.77114        0.06130
N         -5.81633        0.37654       -0.01896
H          6.33767        0.16416        0.25617
H          5.22933        0.22514        1.65895
H          5.20186        1.51473        0.42149
H          4.37200       -2.24903        0.77125
H          3.97977       -2.28798       -0.97601
H          5.64468       -1.97725       -0.45541
H          2.05419       -1.87625       -0.00026
H         -1.24715        2.60534       -0.09295
H          1.22785        3.06292       -0.17210
H          3.55199        2.19885       -0.20273
H         -3.69989        2.05166       -0.01974
H         -4.90847       -2.11078        0.09826
H         -2.51163       -2.82454        0.07686
H         -6.46442       -0.29024        0.37424
H         -6.04909        1.32465        0.23978
