31
4666359.log	Energy: -522684.1922643
C         -5.23971       -0.42477        1.59868
C         -4.95807        0.67773        0.58189
C         -4.58380        0.13272       -0.80333
C         -3.23478       -0.59538       -0.83627
N         -2.10837        0.36997       -0.73881
C         -0.80986       -0.01642       -0.48503
C          0.17255        1.00044       -0.28096
C          1.48916        0.63257       -0.06977
C          1.90796       -0.70857       -0.05557
C          0.92216       -1.70374       -0.24607
C         -0.40616       -1.37933       -0.45645
C          3.30972       -1.10362        0.13353
O          4.32759       -0.45791        0.03863
O          3.40320       -2.44965        0.44641
N          2.45934        1.76504        0.17282
O          2.78929        2.41847       -0.79597
O          2.77842        1.96791        1.32733
H         -6.01220       -1.11795        1.24631
H         -5.59142       -0.00416        2.54909
H         -4.34297       -1.01503        1.82073
H         -5.85440        1.32418        0.48196
H         -4.15566        1.33853        0.96431
H         -5.37072       -0.56989       -1.14964
H         -4.59256        0.95890       -1.54355
H         -3.17876       -1.33823       -0.00550
H         -3.13139       -1.16358       -1.79143
H         -2.36037        1.35235       -0.66823
H         -0.11751        2.05013       -0.30056
H          1.23351       -2.75622       -0.22360
H         -1.13482       -2.17212       -0.60587
H          4.34960       -2.73230        0.57302
