22
4672599.log	Energy: -366637.2688994
C          2.58669       -2.37875        0.00487
O          1.16188       -2.05292        0.00173
C          0.81942       -0.74639        0.00246
C         -0.60562       -0.45343       -0.00132
C         -0.96978        0.92646        0.00704
C          0.03276        1.92467        0.01613
C          1.37427        1.53677        0.00529
N          1.77703        0.19622        0.01937
N          2.41976        2.45896       -0.08090
C         -2.37454        1.22432        0.00772
C         -3.28479        0.20131       -0.00137
C         -2.81636       -1.15729       -0.01065
N         -1.52809       -1.48052       -0.01025
H          2.55180       -3.47367       -0.03154
H          3.04886       -2.00907        0.92487
H          3.07115       -1.95055       -0.87811
H         -0.25200        2.96936        0.00959
H          2.25154        3.40309        0.22472
H          3.36158        2.12135        0.06583
H         -2.68683        2.26758        0.01300
H         -4.35687        0.38924       -0.00250
H         -3.53747       -1.98259       -0.01834
