30
467763.log	Energy: -447772.6124739
C         -3.50323        1.55767        1.17793
C         -2.85285        1.38768       -0.19280
C         -1.56250        0.61631       -0.09737
C         -1.55199       -0.83389        0.12622
N         -0.41865       -1.51744        0.23929
C          0.79324       -0.81949        0.13098
C          0.75740        0.59911       -0.10840
N         -0.42886        1.29606       -0.21327
C          2.03558        1.28194       -0.23495
N          3.21184        0.59862       -0.12048
C          3.12492       -0.77240        0.13684
N          1.96725       -1.51400        0.25078
N          4.31921       -1.43620        0.31559
N          2.10675        2.62809       -0.48117
C         -2.83271       -1.62006        0.23944
C         -3.51506       -1.75786       -1.11886
H         -3.74965        0.58808        1.63256
H         -4.43086        2.13658        1.10606
H         -2.83724        2.08615        1.87223
H         -3.54494        0.86438       -0.89121
H         -2.66512        2.38715       -0.64379
H          5.19066       -0.96262        0.14173
H          4.32306       -2.44077        0.41014
H          1.26392        3.17729       -0.56615
H          2.99834        3.09147       -0.55777
H         -2.62016       -2.63237        0.65606
H         -3.50804       -1.12311        0.97116
H         -2.85282       -2.24102       -1.85004
H         -4.42013       -2.37184       -1.04279
H         -3.80659       -0.77941       -1.52756
