31
46832103.log	Energy: -501931.0506757
C         -1.34763       -1.38581        0.70346
C         -2.75698       -0.81137        0.92250
H         -3.51224       -1.63110        0.92936
C         -3.17078        0.27678       -0.09477
H         -4.14370        0.74455        0.19076
C         -2.06254        1.34603       -0.24547
H         -2.01226        1.99411        0.66760
C         -0.72276        0.71617       -0.51682
C         -0.41180       -0.50451       -0.06999
C          0.91209       -1.15054       -0.38014
O          0.94542       -2.26754       -0.85707
C          2.15477       -0.38053       -0.09052
C          3.33462       -0.74674       -0.75914
C          4.52227       -0.05361       -0.51672
C          4.53918        1.00065        0.40238
C          3.36903        1.35841        1.08120
C          2.17756        0.67152        0.83710
O         -2.39689        2.25963       -1.28700
O         -3.45919       -0.31353       -1.36194
O         -2.82930       -0.11184        2.17811
H         -0.89245       -1.61560        1.69228
H         -1.41601       -2.36986        0.18162
H         -0.03678        1.33631       -1.09820
H          3.31181       -1.58064       -1.46653
H          5.43441       -0.33636       -1.04047
H          5.46551        1.54269        0.59301
H          3.38626        2.17557        1.80145
H          1.26982        0.95266        1.37373
H         -2.77118        1.77199       -2.06267
H         -2.68069       -0.81130       -1.70432
H         -2.70513       -0.72556        2.92710
