21
46856274.log	Energy: -311455.7420651
C          3.10713       -0.18185        0.19878
C          2.34084        0.56266        1.10054
C          0.95068        0.61169        0.96728
C          0.32022       -0.09195       -0.07250
C          1.09238       -0.84166       -0.97506
C          2.48145       -0.88410       -0.83638
C         -1.14426       -0.04612       -0.21791
C         -1.83222        1.08485       -0.47113
O         -1.29425        2.32522       -0.63325
C         -1.88666       -1.34670       -0.06879
O         -2.97399       -1.22093        0.86201
H          4.18984       -0.21706        0.30340
H          2.82691        1.10432        1.91090
H          0.35377        1.17799        1.67996
H          0.60730       -1.38599       -1.78315
H          3.07868       -1.46527       -1.53806
H         -2.91620        1.16709       -0.57551
H         -0.29983        2.32782       -0.57377
H         -2.40385       -1.64438       -1.00284
H         -1.22584       -2.16827        0.26439
H         -2.64225       -0.93148        1.73550
