30
4688717.log	Energy: -532629.0068338
C         -2.87870        0.92874       -1.04433
C         -1.81522        1.39934       -0.03496
C         -1.39257        2.82789       -0.43690
C         -2.39336        1.43437        1.38992
C         -0.60617        0.44990       -0.03151
C          0.68844        0.95434       -0.01511
C          1.83827        0.12928       -0.00069
C          1.69899       -1.28780       -0.00016
C          0.36905       -1.81704        0.00629
C         -0.71412       -0.96300       -0.00201
N         -2.05379       -1.64952        0.03341
O         -2.63730       -1.67409        1.10087
O         -2.43980       -2.15771       -1.00204
N          2.76499       -2.14688       -0.00330
N          3.13691        0.79005        0.00982
O          3.16785        2.00853        0.01799
O          4.14564        0.08456        0.00990
H         -3.48288        1.77015       -1.40800
H         -3.60056        0.22682       -0.61221
H         -2.43429        0.46057       -1.92971
H         -2.25616        3.50451       -0.42999
H         -0.65868        3.25913        0.25339
H         -0.97113        2.85665       -1.44800
H         -2.70983        0.44134        1.73843
H         -1.66300        1.80981        2.11452
H         -3.27339        2.08513        1.44422
H          0.86127        2.04414       -0.00719
H          0.23123       -2.90011        0.01358
H          3.72672       -1.79584       -0.00478
H          2.63513       -3.14445       -0.00079
