23
470920.log	Energy: -424199.3726182
C         -3.89179        1.08360        0.04098
C         -2.49878        1.01720        0.03548
C         -1.88246       -0.24550       -0.00766
C         -2.70603       -1.40269       -0.04319
N         -4.05557       -1.33166       -0.03764
C         -4.63830       -0.10559        0.00451
N         -0.46725       -0.43382       -0.01723
C          0.48047        0.59283       -0.00031
O          0.19417        1.77739        0.00835
C          1.92843        0.15803       -0.00079
N          2.24139       -1.16501        0.04766
C          3.55277       -1.49331        0.05031
C          4.56038       -0.49684        0.00547
N          4.24823        0.82018       -0.04378
C          2.93254        1.15482       -0.04702
H         -4.39447        2.04920        0.07454
H         -1.89625        1.93393        0.06200
H         -2.27970       -2.41148       -0.07800
H         -5.73360       -0.09433        0.00798
H         -0.13973       -1.40956       -0.01800
H          3.79817       -2.56123        0.09053
H          5.62706       -0.75428        0.00915
H          2.67417        2.22548       -0.08481
