30
4736722.log	Energy: -511889.4328678
C          3.23881       -3.36906       -0.07761
O          3.45517       -1.93762       -0.04792
C          2.34334       -1.12192       -0.01061
C          2.69226        0.25231       -0.01265
C          1.68948        1.20569        0.02456
C          0.33050        0.77970        0.06750
C         -0.01914       -0.58330        0.06530
C          1.02151       -1.54419        0.02620
C         -1.39408       -1.07353        0.10781
C         -2.48992       -0.33239       -0.13169
N         -3.83234       -0.91700       -0.06259
O         -4.77056       -0.18035       -0.32241
O         -3.94151       -2.09644        0.24734
O         -0.72248        1.66763        0.08560
C         -0.40810        3.05791        0.40014
C          0.82261        3.52952       -0.36122
C          2.02976        2.66870        0.02363
H          4.26919       -3.74821       -0.10913
H          2.69012       -3.65291       -0.98022
H          2.72977       -3.69632        0.83356
H          3.74686        0.52534       -0.04672
H          0.76659       -2.60095        0.02426
H         -1.50688       -2.14436        0.35380
H         -2.48185        0.73559       -0.39362
H         -0.28726        3.12030        1.49574
H         -1.34141        3.56008        0.08487
H          0.63867        3.45678       -1.45382
H          1.02122        4.59823       -0.15439
H          2.86959        2.86742       -0.67540
H          2.40476        2.95540        1.03031
