19
4736915.log	Energy: -352728.8491681
C          3.19858       -1.00585        0.01756
C          3.37243        0.41505        0.00012
C          2.29720        1.26290       -0.02062
C          0.97010        0.71985       -0.01640
C          0.79397       -0.70570        0.00147
C          1.94751       -1.56026        0.01839
N         -0.46569       -1.26474       -0.00101
C         -1.51552       -0.44451       -0.00816
C         -1.35418        1.01480       -0.00921
N         -0.11711        1.56870       -0.03506
N         -2.44298        1.86603        0.09370
C         -2.82278       -1.03188       -0.01058
N         -3.88222       -1.49341       -0.01361
H          4.08803       -1.63580        0.03197
H          4.39027        0.80982        0.00258
H          2.41086        2.34824       -0.03480
H          1.78700       -2.64067        0.03270
H         -2.28344        2.86025       -0.01629
H         -3.36056        1.53571       -0.15967
