32
4739563.log	Energy: -510190.4828228
C         -4.39797       -1.44164        0.16323
O         -3.46694       -0.32553        0.13121
C         -2.14179       -0.59332       -0.01196
C         -1.30849        0.54922       -0.04796
C          0.08521        0.38888       -0.18270
C          0.64121       -0.88173       -0.29682
C         -0.20499       -2.02145       -0.26474
C         -1.57515       -1.88320       -0.12038
N          2.05262       -1.16480       -0.49859
C          2.75337       -0.19854       -1.39841
C          3.20467        1.11044       -0.71496
N          3.94768        0.89119        0.55626
C          3.18867       -0.01200        1.46558
C          2.78430       -1.34230        0.79585
N         -1.85705        1.90579        0.05013
O         -3.05780        2.03476        0.20668
O         -1.06458        2.83535       -0.03403
H         -5.35236       -0.91104        0.30211
H         -4.18587       -2.09342        1.01440
H         -4.38297       -1.97711       -0.78949
H          0.71943        1.29193       -0.19861
H          0.24288       -3.01511       -0.36182
H         -2.21020       -2.76536       -0.09956
H          3.63679       -0.74334       -1.80267
H          2.10258        0.02402       -2.27026
H          2.31726        1.75175       -0.48584
H          3.84280        1.70614       -1.40098
H          4.86301        0.47455        0.34830
H          2.28487        0.53297        1.81941
H          3.80622       -0.20257        2.36841
H          2.16551       -1.95152        1.48622
H          3.68758       -1.94989        0.56444
