34
4788718.log	Energy: -487715.4122330
C         -4.88872        0.28235       -0.53705
N         -3.45438        0.40701       -0.13438
C         -3.21470       -0.36729        1.12762
C         -1.77953       -0.17905        1.64130
C         -0.73913       -0.93246        0.80271
N         -0.19288       -0.16335       -0.36018
C         -1.19557        0.66858       -1.10407
C         -2.55757       -0.03272       -1.25327
C          1.03530        0.53002       -0.07529
C          1.11687        1.93460        0.06442
C          2.34268        2.56657        0.23492
C          3.53131        1.82129        0.26997
C          3.48073        0.43927        0.12577
C          2.24254       -0.20541       -0.03757
N          2.27554       -1.67675       -0.21755
O          2.86084       -2.10481       -1.19461
O          1.75805       -2.36935        0.64359
H         -5.07044        0.90970       -1.42465
H         -5.52424        0.68321        0.26937
H         -5.22041       -0.74185       -0.76193
H         -3.92222        0.02828        1.89145
H         -3.43784       -1.45115        1.01832
H         -1.73003       -0.53788        2.68879
H         -1.53616        0.90124        1.68782
H         -1.17373       -1.86693        0.37754
H          0.10297       -1.26927        1.45337
H         -0.75918        0.84034       -2.11509
H         -1.35547        1.67002       -0.63697
H         -2.43434       -1.13482       -1.32208
H         -3.00446        0.28802       -2.22075
H          0.19877        2.52603        0.04970
H          2.38300        3.65178        0.34603
H          4.48791        2.32386        0.40292
H          4.40137       -0.15021        0.13231
