27
4912815.log	Energy: -518818.6058593
C          4.99876        0.00409        0.10235
C          3.54088       -0.21271        0.06053
N          2.59108        0.75485        0.06136
C          1.35323        0.10069        0.00764
C          1.56829       -1.32177       -0.01622
N          2.96854       -1.50411        0.01036
C          0.49814       -2.22926       -0.04375
C         -0.77974       -1.71619       -0.02148
C         -1.04226       -0.30985        0.02690
C          0.03119        0.62111       -0.00232
N         -0.15783        2.06830       -0.05894
O          0.72649        2.78343       -0.46808
O         -1.26231        2.50561        0.30144
N         -2.37038        0.15716        0.10699
C         -3.56473       -0.61398       -0.01725
O         -3.55468       -1.80962       -0.21228
C         -4.80751        0.21314        0.11492
H          5.22588        1.08371        0.21480
H          5.49387       -0.32314       -0.82539
H          5.47767       -0.51023        0.94889
H          3.43777       -2.38932        0.00034
H          0.67554       -3.30418       -0.07716
H         -1.63614       -2.40787       -0.04123
H         -2.48097        1.19135        0.26841
H         -4.83313        0.81288        1.03654
H         -4.93663        0.90650       -0.73079
H         -5.69706       -0.43996        0.13064
