19
4961379.log	Energy: -251308.8431607
C          2.46141        0.71923        0.01878
C          1.13156        1.40895       -0.01264
C         -0.04575        0.74116       -0.00354
C         -1.34108        1.42616       -0.01132
C         -2.50019        0.73185       -0.00019
C         -2.50884       -0.72072        0.01187
C         -1.34354       -1.40943        0.01023
C         -0.06492       -0.72575       -0.00406
C          1.12936       -1.40598       -0.03471
N          2.34996       -0.76915        0.04760
H          3.07038        1.03161       -0.86277
H          3.02512        1.02536        0.93473
H          1.18254        2.49127       -0.04386
H         -1.32605        2.51360       -0.02049
H         -3.46615        1.23494        0.00343
H         -3.47186       -1.22177        0.02412
H         -1.33112       -2.49856        0.02178
H          1.16456       -2.50199       -0.07488
H          3.19484       -1.28326       -0.16175
