23
4962374.log	Energy: -439232.7297048
C          5.14597       -0.49323       -0.07383
O          4.15260        0.55344        0.04247
C          2.82608        0.18516        0.03183
C          1.95366        1.29301        0.10648
C          0.58363        1.07883        0.10498
C          0.08218       -0.23835        0.03186
C          0.95929       -1.33356       -0.04190
C          2.34046       -1.12594       -0.04051
N         -1.33093       -0.52012        0.03412
C         -2.32962        0.43511       -0.09646
O         -2.18190        1.62926       -0.21224
C         -3.74600       -0.19507       -0.12838
O         -4.42165       -0.47261       -1.08132
O         -4.16667       -0.40442        1.15383
H          6.07811        0.08709       -0.10696
H          5.00608       -1.05739       -1.00010
H          5.11802       -1.13831        0.80885
H          2.37010        2.29887        0.16033
H         -0.10253        1.93306        0.15696
H          0.57733       -2.35210       -0.10147
H          3.01240       -1.97691       -0.09645
H         -1.58584       -1.50392        0.14700
H         -5.11002       -0.73063        1.20672
