26
4983791.log	Energy: -391651.4813366
C          2.63065       -1.32798       -0.41783
C          1.42283       -0.76765       -0.28677
C          1.25546        0.64954        0.13361
N          0.13461        1.27130        0.31859
C         -1.14710        0.65753        0.16911
C         -1.92600        0.97429       -0.96027
C         -3.22177        0.48074       -1.07044
C         -3.75581       -0.33336       -0.04819
C         -2.97776       -0.63760        1.08921
C         -1.67892       -0.14871        1.19243
N         -5.03820       -0.92050       -0.20662
C          2.50432        1.42136        0.35095
C          3.71279        0.86040        0.21941
C          3.88388       -0.56742       -0.15182
N          5.08347       -1.03897       -0.21459
H          2.74966       -2.36675       -0.72826
H          0.50097       -1.32232       -0.48305
H         -1.51205        1.61012       -1.74310
H         -3.81651        0.71697       -1.94988
H         -3.38471       -1.26187        1.88105
H         -1.07821       -0.37675        2.07253
H         -5.66554       -0.43965       -0.83677
H         -5.50661       -1.18835        0.64794
H          2.37289        2.47230        0.62664
H          4.63986        1.41974        0.38049
H          5.22573       -2.01311       -0.46562
