22
499043.log	Energy: -311999.1487649
C         -0.22876       -0.42613        1.92258
C         -0.54966       -0.35159        0.43103
C         -2.02346       -0.68495        0.18018
H         -2.41602       -1.65331        0.42936
C         -2.64750        0.37334       -0.37689
H         -3.67972        0.45720       -0.66882
C         -1.68041        1.46868       -0.56084
H         -1.95291        2.41505       -0.99472
C         -0.45503        1.07753       -0.11855
C          0.75635        1.86945       -0.13385
H          0.57683        2.95391       -0.17079
C          2.02632        1.42776       -0.12028
H          2.83130        2.17530       -0.12964
C          2.51957        0.05590       -0.11615
H          3.61722       -0.00460       -0.04113
C          1.83948       -1.09328       -0.21959
H          2.38100       -2.04767       -0.24727
C          0.37623       -1.28744       -0.36130
O         -0.06389       -2.19369       -1.03399
H         -0.31968       -1.45056        2.30263
H         -0.91595        0.20368        2.50283
H          0.79022       -0.07515        2.13145
