29
4999126.log	Energy: -545162.0773244
C          4.50548       -1.72103        1.09987
C          4.43229       -1.26265       -0.34174
O          3.65561       -0.03607       -0.46006
C          2.28899       -0.09902       -0.31226
C          1.68385        1.14800       -0.16028
C          0.28073        1.23532       -0.05476
C         -0.51440        0.06174       -0.09802
C          0.13816       -1.19101       -0.24278
C          1.51293       -1.27838       -0.35128
N         -1.92418        0.14212       -0.00120
C         -2.79008       -0.96504       -0.00451
O         -2.52406       -2.14434       -0.08486
O         -4.07370       -0.46535        0.10598
C         -5.12756       -1.47037        0.12673
N         -0.27073        2.59061        0.09825
O          0.50505        3.52522        0.17313
O         -1.49382        2.72015        0.14438
H          4.84737       -0.90916        1.75847
H          5.20465       -2.55793        1.21912
H          3.53049       -2.04553        1.48522
H          5.40920       -0.90016       -0.72309
H          4.02572       -2.02728       -1.02395
H          2.29792        2.05726       -0.12684
H         -0.46434       -2.11244       -0.27205
H          1.98952       -2.25202       -0.47211
H         -2.35856        1.09360        0.08124
H         -5.13068       -2.01822       -0.82116
H         -4.97699       -2.14819        0.97313
H         -6.02477       -0.85139        0.24827
