29
5018797.log	Energy: -486180.8277073
C          5.64584       -0.38285       -0.01673
C          4.71949       -1.42959       -0.00850
C          3.34774       -1.17082        0.00736
C          2.90187        0.16031        0.01252
C          3.82863        1.22471        0.00481
C          5.19392        0.94110       -0.00931
N          1.51029        0.51485        0.02559
C          0.43736       -0.38781        0.00825
O          0.59286       -1.59876       -0.00323
C         -0.94519        0.20714        0.00580
C         -1.98617       -0.66607        0.00947
C         -3.38729       -0.36519        0.00453
C         -4.10850        0.84665        0.00803
C         -5.48771        0.53879       -0.00238
C         -5.61703       -0.85850       -0.01215
N         -4.34695       -1.41051       -0.00676
C         -1.09281        1.62005       -0.00720
N         -1.19595        2.77340       -0.01852
H          6.71188       -0.59552       -0.02897
H          5.06755       -2.46291       -0.01387
H          2.63210       -1.99955        0.01448
H          3.49298        2.25893        0.00965
H          5.91285        1.76025       -0.01519
H          1.32174        1.52162        0.03553
H         -1.72805       -1.74656        0.01550
H         -3.69069        1.83732        0.01746
H         -6.29288        1.24841       -0.00235
H         -6.51464       -1.45366       -0.02093
H         -4.12846       -2.38980       -0.01458
