27
5022945.log	Energy: -436260.8904017
C         -0.66839       -2.17848        0.24066
C         -2.11720       -2.74707        0.32546
N         -3.03051       -1.59294        0.02574
C         -2.27690       -0.41650        0.01702
N         -2.79002        0.83449       -0.08217
C         -1.81772        1.83728       -0.16373
N         -0.44887        1.64854       -0.16937
C          0.01397        0.36015       -0.04770
C         -0.86413       -0.70526        0.06186
C          1.49059        0.19678       -0.03444
C          2.11603       -0.62008       -0.98718
C          3.51162       -0.76061       -0.93314
N          4.27953       -0.14439        0.00347
C          3.65869        0.64936        0.91470
C          2.26878        0.84935        0.93018
N         -2.28093        3.14383       -0.18475
H         -0.11661       -2.62145       -0.60867
H         -0.08835       -2.40569        1.15335
H         -2.29173       -3.53209       -0.43906
H         -2.32521       -3.18398        1.32114
H         -3.97732       -1.60137        0.38339
H          1.53576       -1.12170       -1.75816
H          4.04704       -1.38485       -1.65807
H          4.30996        1.13740        1.64959
H          1.80511        1.50929        1.66261
H         -3.25977        3.30703       -0.37043
H         -1.63544        3.88117       -0.42822
