27
5033457.log	Energy: -516364.8194714
C          5.70673       -0.78262        0.73011
C          4.43641       -0.13177        0.38873
C          3.98821        1.16674        0.32561
C          2.61109        1.11671       -0.08363
C          2.28487       -0.20833       -0.25111
O          3.41264       -1.02087        0.03686
C          1.11597       -0.96708       -0.64546
N         -0.10036       -0.55863       -0.87388
N         -0.37777        0.78375       -0.85565
C         -1.57033        1.18411       -0.44596
C         -2.59786        0.37950        0.24866
N         -3.14978        0.66614        1.42809
O         -4.02805       -0.32473        1.74484
N         -4.05849       -1.29601        0.74958
C         -3.19549       -0.90409       -0.21589
N         -3.02006       -1.49696       -1.45821
N         -1.93383        2.51275       -0.70534
H          6.48160       -0.57519       -0.02657
H          5.60248       -1.87893        0.79479
H          6.09276       -0.43228        1.70100
H          4.54030        2.06090        0.53616
H          1.96650        1.96502       -0.23429
H          1.28397       -2.05614       -0.76021
H         -3.33142       -2.46050       -1.53350
H         -2.11122       -1.33824       -1.89533
H         -1.21511        3.12914       -1.06708
H         -2.58214        2.95474       -0.06703
