28
5076311.log	Energy: -511222.3215611
C          4.86895       -1.18998        0.36947
O          3.52709       -1.57617       -0.01086
C          2.57940       -0.57798       -0.11607
C          1.31960       -1.07771       -0.51008
C          0.25424       -0.19392       -0.65516
C          0.46757        1.18814       -0.40861
C          1.72033        1.67306       -0.02572
C          2.78925        0.78277        0.12594
O         -0.66446        1.95368       -0.60972
C         -0.58017        3.36984       -0.32188
C         -1.06085       -0.69781       -1.08118
C         -2.13980       -0.82146       -0.28396
C         -3.37705       -1.32659       -0.79465
N         -4.37045       -1.74175       -1.21520
C         -2.12766       -0.44838        1.15811
O         -1.26574       -0.60080        1.98799
O         -3.32341        0.13678        1.50349
H          5.39561       -2.15340        0.33129
H          4.87146       -0.78474        1.38558
H          5.28852       -0.48723       -0.35523
H          1.20086       -2.14868       -0.67755
H          1.87887        2.73224        0.16094
H          3.76062        1.16075        0.43291
H         -0.33882        3.53077        0.73279
H          0.14069        3.85178       -0.98816
H         -1.60413        3.70039       -0.54552
H         -1.11486       -0.98819       -2.14181
H         -3.35637        0.39078        2.46651
