31
5078579.log	Energy: -522680.8283498
C          4.88286       -0.46039        0.98923
C          4.34613       -0.95230       -0.34825
C          2.87019       -1.28926       -0.25983
O          2.43673       -2.42236       -0.23649
N          2.02465       -0.14774       -0.22114
C          0.61312       -0.14518       -0.13565
C         -0.11228        1.07356       -0.07384
C         -1.52085        1.06409        0.00260
C         -2.20527       -0.14960        0.01773
C         -1.50151       -1.37369       -0.03799
C         -0.12244       -1.36160       -0.11311
O         -3.57032       -0.01045        0.09046
C         -4.38758       -1.22654        0.13029
C         -5.80001       -0.67876        0.15555
N          0.51665        2.40009       -0.07997
O          1.74557        2.46683       -0.15649
O         -0.19693        3.38360       -0.00811
H          4.71095       -1.19317        1.78952
H          4.42165        0.48515        1.30202
H          5.96639       -0.28910        0.93579
H          4.54331       -0.20973       -1.14897
H          4.88729       -1.87494       -0.66079
H          2.48393        0.79064       -0.22911
H         -2.07815        2.00810        0.04914
H         -2.03083       -2.32580       -0.02259
H          0.42475       -2.31702       -0.15608
H         -4.17478       -1.82635       -0.77025
H         -4.12858       -1.78453        1.04644
H         -6.09525       -0.26564       -0.81824
H         -6.52582       -1.45128        0.43377
H         -5.88848        0.14451        0.88177
