32
5085801.log	Energy: -453658.5873775
C          1.03620        3.51380        0.64846
C          0.82564        2.08055        0.25582
C         -0.30199        1.41637        0.58468
C         -0.65500        0.06151        0.14516
N          0.12719       -0.93136       -0.14735
C          1.54705       -0.90543       -0.09595
C          2.14560       -2.16452        0.10155
C          3.53391       -2.30868        0.09009
C          4.34976       -1.19691       -0.12519
C          3.78112        0.06471       -0.31431
C          2.38424        0.22385       -0.30018
N          1.85968        1.53965       -0.56508
C         -2.12392       -0.19883        0.03002
C         -2.69281       -1.33244        0.62720
C         -4.06848       -1.55810        0.52237
C         -4.87540       -0.66029       -0.18263
C         -4.30533        0.46487       -0.78823
C         -2.93286        0.69945       -0.68328
H          0.18221        3.91993        1.21106
H          1.16468        4.16549       -0.22859
H          1.92004        3.63528        1.29103
H         -1.06186        1.90868        1.19432
H          1.50235       -3.03472        0.25376
H          3.97664       -3.29109        0.24305
H          5.43262       -1.30855       -0.14548
H          4.43020        0.92190       -0.47989
H          2.58969        2.21274       -0.82295
H         -2.05742       -2.03988        1.16126
H         -4.50908       -2.43846        0.98679
H         -5.94568       -0.83881       -0.26511
H         -4.93223        1.15852       -1.34531
H         -2.48650        1.57134       -1.16039
