26
5101056.log	Energy: -427899.2663923
C         -3.47742        0.43160        0.14592
C         -2.51320        1.46367        0.16961
C         -1.18667        1.10742        0.08096
C         -0.73938       -0.25049       -0.00812
C         -1.71249       -1.24618       -0.15182
C         -3.08891       -0.88436       -0.02847
N         -1.40022       -2.61532       -0.36840
C          0.73945       -0.25033        0.00738
C          1.18732        1.10756       -0.08242
C          0.00025        2.02907        0.00082
O          0.00063        3.23280        0.00539
C          2.51397        1.46287       -0.17408
C          3.47756        0.43025       -0.14949
C          3.08858       -0.88530        0.02814
C          1.71210       -1.24667        0.15261
N          1.39922       -2.61483        0.37104
H         -4.53296        0.68387        0.24614
H         -2.81145        2.50863        0.24767
H         -3.84449       -1.66834       -0.07424
H         -0.57359       -2.77646       -0.94150
H         -2.17515       -3.17914       -0.69674
H          2.81198        2.50754       -0.25631
H          4.53315        0.68167       -0.25176
H          3.84395       -1.66929        0.07548
H          0.57069       -2.77583        0.94141
H          2.17297       -3.17860        0.70205
