23
5105807.log	Energy: -616083.1566875
C         -3.05997        2.33030        0.00673
C         -1.75312        1.61620       -0.00883
C         -0.55454        2.26285       -0.01034
C          0.71396        1.57841       -0.01225
C          0.79794        0.21508       -0.00436
C         -0.43891       -0.56736       -0.00063
N         -0.56414       -1.88801        0.00345
S         -2.22413       -2.26117        0.00277
N         -2.79235       -0.65853       -0.00121
C         -1.74919        0.16023       -0.00312
N          2.01484       -0.52451       -0.00108
C          3.31205        0.04049        0.00657
O          3.49666        1.24058        0.02342
C          4.41183       -0.98289       -0.00906
H         -3.39247        2.51013        1.04124
H         -3.85663        1.74534       -0.48062
H         -3.01287        3.30225       -0.50129
H         -0.51590        3.35514       -0.01239
H          1.62179        2.19752       -0.01673
H          1.91334       -1.54564       -0.01562
H          4.34873       -1.68913        0.82999
H          4.42697       -1.56451       -0.94133
H          5.39110       -0.47945        0.06866
