26
5112662.log	Energy: -394059.8602433
C         -4.26074       -0.65965        0.14636
C         -3.20002       -1.38715        0.69486
C         -1.90184       -0.87487        0.67741
C         -1.66501        0.38277        0.09252
C         -2.73123        1.12446       -0.45739
C         -4.02138        0.59574       -0.42297
N         -0.36625        0.97975        0.12613
C          0.83352        0.30540       -0.16773
C          0.91357       -0.96500       -0.64111
C          2.09913       -1.74685       -0.86116
C          3.33425       -1.57491       -0.33645
C          3.76355       -0.53304        0.56501
C          3.19796        0.67375        0.75264
C          2.02302        1.21932        0.07640
O          1.92105        2.39416       -0.22850
H         -5.26917       -1.06598        0.16539
H         -3.38672       -2.36101        1.14774
H         -1.08544       -1.43277        1.13356
H         -2.55477        2.09829       -0.90860
H         -4.84801        1.16595       -0.84762
H         -0.33608        2.00223       -0.00417
H         -0.01651       -1.47836       -0.92240
H          1.93725       -2.61613       -1.51701
H          4.11209       -2.30642       -0.58511
H          4.67881       -0.77070        1.12878
H          3.65519        1.39342        1.44425
