28
5113812.log	Energy: -529533.7239025
C          3.16178       -1.79419        0.23603
C          1.73210       -1.38791        0.12549
N          0.84098       -2.36458        0.22350
C         -0.50286       -2.02701        0.10925
N         -1.57098       -2.86481        0.17156
N         -2.68289       -2.06263       -0.00645
C         -2.36724       -0.71843       -0.20016
C         -0.94396       -0.63385       -0.12124
C          0.01904        0.38475       -0.21023
C          1.36458        0.01673       -0.09633
N          2.42931        1.00433       -0.20192
O          3.47846        0.82005        0.39072
O          2.21614        2.00001       -0.89075
C         -0.41333        1.81124       -0.45258
O         -1.53869        2.05639        0.43117
C         -1.63909        3.42724        0.86941
N         -3.31418        0.24373       -0.52851
H          3.64068       -1.32982        1.11786
H          3.75222       -1.48392       -0.63909
H          3.27486       -2.88744        0.33999
H         -3.59331       -2.50347       -0.04624
H          0.38509        2.56194       -0.26720
H         -0.76654        1.94014       -1.49670
H         -0.72952        3.72812        1.40069
H         -1.83904        4.08680        0.01997
H         -2.49147        3.39503        1.55950
H         -4.25916        0.09776       -0.19549
H         -3.00297        1.21952       -0.40750
