23
5140517.log	Energy: -449709.7600845
C          1.00943       -2.28425        0.08352
C         -0.24567       -1.73097        0.05708
C         -0.41874       -0.31366       -0.00430
C          0.73302        0.52808       -0.03232
C          0.57516        1.94596       -0.03513
C         -0.67450        2.52175       -0.03601
C         -1.82862        1.70591       -0.02832
C         -1.70575        0.32587       -0.01610
N         -2.97036       -0.44470       -0.00649
O         -2.96906       -1.60217       -0.38996
O         -3.96872        0.14615        0.38017
C          2.03633       -0.09627       -0.03465
C          2.16778       -1.46596        0.03019
N          3.18664        0.79307       -0.01538
O          4.39181        0.03824        0.01132
H          1.13620       -3.36757        0.13692
H         -1.12930       -2.37982        0.07415
H          1.46344        2.58362       -0.01969
H         -0.79240        3.60592       -0.03628
H         -2.82200        2.17375       -0.02401
H          3.15662       -1.92981        0.02880
H          3.27495        1.31120       -0.90470
H          4.67566        0.08755        0.98189
