26
5144559.log	Energy: -521031.7771763
C          3.60125       -0.93700        0.24577
C          3.20258        0.42701        0.19739
C          1.87024        0.69642        0.04176
C          0.85082       -0.31585       -0.07408
C          1.28062       -1.64859       -0.14403
C          2.67634       -1.93813        0.07388
N          0.43275       -2.73279       -0.37146
C         -0.45783        0.35958       -0.07560
C         -0.23299        1.78431       -0.09672
C          1.23584        2.06268       -0.03752
O          1.78570        3.13218       -0.04665
C         -1.24802        2.71398       -0.11080
C         -2.58451        2.25662       -0.07017
C         -2.84239        0.90094        0.00953
C         -1.78478       -0.05034        0.01310
N         -2.23349       -1.45487        0.14734
O         -2.23719       -2.13857       -0.87026
O         -2.61923       -1.82780        1.23463
H          4.65400       -1.17528        0.40895
H          3.93925        1.22514        0.28521
H          2.99174       -2.98151        0.09962
H         -0.37003       -2.60921       -0.98477
H          0.85521       -3.64645       -0.46562
H         -1.02422        3.78399       -0.14031
H         -3.40279        2.97636       -0.08599
H         -3.87528        0.54435        0.07503
