25
5190407.log	Energy: -614362.7295286
C         -0.86470        2.47318        0.36240
C         -0.80068        0.99496        0.16665
N          0.26981        0.25248        0.05305
N          1.52874        0.80108        0.11138
C          2.63856       -0.02857       -0.03415
S          4.15390        0.70118        0.01190
N          2.51477       -1.39022       -0.14379
N          3.63203       -2.22639       -0.38632
C         -2.09292        0.24667        0.08047
C         -2.30166       -0.94442        0.79904
C         -3.53275       -1.59525        0.66862
C         -4.51270       -1.05082       -0.16369
C         -4.22973        0.14637       -0.84522
N         -3.04416        0.79353       -0.73096
H         -0.47727        3.01062       -0.51877
H         -0.30260        2.80366        1.24676
H         -1.90022        2.83289        0.48980
H          1.69465        1.81444        0.22081
H          1.61856       -1.86253       -0.32188
H          4.22554       -1.84577       -1.14352
H          4.23409       -2.24264        0.45407
H         -1.51637       -1.35075        1.43583
H         -3.72249       -2.52155        1.21219
H         -5.47783       -1.53776       -0.28499
H         -4.96725        0.61458       -1.50906
