28
519546.log	Energy: -428626.9504400
C          4.06388        0.92959        0.31338
C          3.91282        0.02856       -0.74558
C          2.70573       -0.65495       -0.91500
C          1.64323       -0.42466       -0.02984
C          1.79825        0.46996        1.03810
C          3.00930        1.14603        1.20708
C          0.37080       -1.19627       -0.20691
O          0.42082       -2.39562       -0.43675
C         -0.91732       -0.47175       -0.10208
C         -2.11861       -1.15497        0.20831
C         -3.34112       -0.42141        0.28657
C         -3.36191        0.93613        0.05171
C         -2.16295        1.62028       -0.28555
C         -0.96237        0.91502       -0.35426
N         -2.18691        3.04462       -0.43734
N         -2.13319       -2.51556        0.52703
H          5.00577        1.46061        0.44554
H          4.73662       -0.14463       -1.43607
H          2.58551       -1.37372       -1.72758
H          0.97530        0.63457        1.73643
H          3.13216        1.84052        2.03677
H         -4.26030       -0.94424        0.54453
H         -4.29674        1.49227        0.12670
H         -0.03959        1.43826       -0.61242
H         -3.05587        3.40005       -0.81761
H         -1.40684        3.41261       -0.96911
H         -1.32773       -3.08051        0.25371
H         -3.01247       -3.00353        0.48984
