17
5197963.log	Energy: -333154.6180570
C         -0.50614        1.99487        0.20938
C         -1.54294        1.21443        0.59683
C         -1.25047       -0.22382        0.51918
C         -0.13218       -0.54931        1.20865
C          1.08486       -0.91393        0.46583
O          1.73042       -1.92123        0.35586
C          1.48343        0.40021       -0.22375
C          0.80748        1.57268       -0.30039
O          2.68151        0.34812       -0.89111
C         -1.89104       -1.07690       -0.52839
O         -2.95446       -0.79218       -1.02764
H         -0.63670        3.08489        0.19957
H         -2.52446        1.57926        0.87550
H          0.08621       -0.07897        2.17908
H          1.31861        2.37230       -0.86565
H          3.11937       -0.54775       -0.77980
H         -1.34079       -1.99678       -0.78964
