22
5201905.log	Energy: -431843.6259133
C         -1.53279       -1.54132       -0.40980
C         -1.86920       -0.12772       -0.49022
N         -0.93601        0.81169       -0.37466
C          0.35900        0.39327       -0.17539
C          1.44007        1.35992       -0.02234
N          2.72626        0.94760        0.17278
C          2.95689       -0.42934        0.20732
N          2.00063       -1.42350        0.08556
C          0.71734       -1.00450       -0.10201
N         -0.29740       -1.97236       -0.22795
N          4.25928       -0.83057        0.37212
N          1.20944        2.70751       -0.07503
C         -3.29322        0.30056       -0.72575
C         -4.09361        0.16153        0.48066
N         -4.73571        0.05776        1.43488
H         -2.32623       -2.29829       -0.49978
H          4.47947       -1.81277        0.45261
H          4.99025       -0.15162        0.51202
H          1.96387        3.36499        0.05613
H          0.26984        3.06407       -0.17755
H         -3.32587        1.36692       -1.07415
H         -3.74358       -0.29469       -1.55796
