23
5202945.log	Energy: -460423.6868299
C          3.25199       -1.10560        0.02347
C          3.71613        0.24834        0.06867
C          2.83303        1.29195        0.05326
C          1.41894        1.03158        0.00922
C          0.94926       -0.32277       -0.02049
C          1.91406       -1.38438       -0.02274
C         -0.45470       -0.52986       -0.05056
C         -1.33568        0.53997       -0.06228
C         -0.77648        1.88370       -0.03144
N          0.56229        2.10772       -0.01029
N         -1.59635        2.99869        0.04208
C         -2.74802        0.35752       -0.09161
N         -3.89618        0.21966       -0.11747
C         -0.97653       -1.93647       -0.09262
O         -0.87742       -2.75987       -0.96724
O         -1.62177       -2.22342        1.08076
H          3.99116       -1.90662        0.02297
H          4.79228        0.42679        0.10913
H          3.16032        2.33335        0.07811
H          1.55916       -2.41607       -0.07405
H         -1.17281        3.91514       -0.03611
H         -2.57111        2.93396       -0.20056
H         -2.00589       -3.14658        1.09485
