27
5202873.log	Energy: -596731.4688923
C         -4.56337       -0.91617        0.53552
C         -3.76131        0.20681       -0.05365
O         -4.28990        1.17691       -0.55313
C         -2.26801        0.06743       -0.02512
C         -1.52865        0.67975       -1.04876
C         -0.13664        0.57857       -1.06698
C          0.52041       -0.13275       -0.05192
C         -0.21453       -0.74385        0.97522
C         -1.60719       -0.64439        0.98443
C          1.99493       -0.28542       -0.08755
S          2.61509       -1.73852       -0.60891
N          2.80580        0.72251        0.29490
C          2.31140        2.03631        0.76297
C          4.27682        0.56382        0.22727
H         -5.63028       -0.81156        0.28286
H         -4.49720       -0.93288        1.63132
H         -4.23232       -1.89698        0.16831
H         -2.05243        1.23947       -1.82931
H          0.43455        1.03505       -1.87546
H          0.30095       -1.31284        1.75073
H         -2.17329       -1.12455        1.78297
H          2.80182        2.32125        1.71061
H          2.51769        2.82060        0.01250
H          1.22189        2.02646        0.94826
H          4.60796       -0.28037        0.86629
H          4.59859        0.32264       -0.80674
H          4.79621        1.47643        0.55230
