22
522294.log	Energy: -459778.9909860
C         -0.52669        1.32192        0.01200
C         -1.91591        1.22072        0.01261
C         -2.51187       -0.05007        0.00043
C         -1.73194       -1.21709       -0.01593
C         -0.34406       -1.10846       -0.01787
C          0.26888        0.15912       -0.00264
C          1.72570        0.27368       -0.00500
C          2.52340        1.39810       -0.04904
O          3.86662        1.00917       -0.02317
C          3.81297       -0.41228        0.02807
N          2.56145       -0.87860        0.05273
N          5.04350       -1.04441       -0.05960
N         -3.98578       -0.15855        0.00257
O         -4.62854        0.87896        0.05106
O         -4.47308       -1.27639       -0.04359
H         -0.06308        2.30772        0.02435
H         -2.54620        2.11713        0.02465
H         -2.22045       -2.19830       -0.02761
H          0.27867       -2.00991       -0.03145
H          2.38417        2.45308       -0.10268
H          5.84578       -0.49694        0.23342
H          5.06403       -2.00977        0.25930
