24
5243939.log	Energy: -445533.3505400
C         -3.11356       -1.48638        0.71067
C         -1.82218       -0.95861        0.76945
C         -1.52941        0.21550        0.05544
C         -2.55622        0.80716       -0.71616
N         -3.80912        0.29756       -0.77613
C         -4.08065       -0.83204       -0.06852
C         -0.19695        0.83673        0.09479
C          0.00097        2.20775        0.22635
C          1.30986        2.76434        0.24506
N          2.43581        2.04969        0.14228
C          2.31029        0.69033        0.01619
N          3.21172       -0.31043       -0.11035
C          2.43980       -1.49956       -0.18692
N          1.06861       -1.29091       -0.13712
N          0.95653        0.07294       -0.00535
N          3.03054       -2.75463       -0.20982
H         -3.36535       -2.39432        1.25588
H         -1.04670       -1.45620        1.36016
H         -2.37309        1.71140       -1.31112
H         -5.10842       -1.20905       -0.14371
H         -0.85792        2.87003        0.33154
H          1.43930        3.85330        0.35161
H          2.47129       -3.51399       -0.57687
H          4.01059       -2.78200       -0.47020
