28
5246325.log	Energy: -472992.5676016
C          1.27709        3.51978       -0.03813
C          0.06967        2.85507       -0.03767
C          0.03916        1.43270        0.00357
C          1.28265        0.74340        0.00397
C          1.29421       -0.72287       -0.00026
C          0.06196       -1.43227       -0.01049
C          0.11670       -2.85398        0.01826
C          1.33467       -3.49962        0.02849
C          2.52069       -2.71455        0.01616
N          2.50702       -1.37800        0.00656
C         -1.18982       -0.70034       -0.01968
C         -1.20067        0.68069        0.01839
N         -2.43488        1.43129       -0.00028
C         -3.63719        0.64286        0.04852
C         -3.62719       -0.70035       -0.04000
N         -2.41233       -1.46929        0.00491
N          2.48485        1.41843        0.00523
C          2.47590        2.75490       -0.00850
H          1.32852        4.60557       -0.06946
H         -0.86436        3.41704       -0.08479
H         -0.80813       -3.43211        0.05126
H          1.40332       -4.58456        0.05309
H          3.50850       -3.19342        0.01926
H         -2.44128        2.18802        0.69452
H         -4.55559        1.23020        0.09405
H         -4.53626       -1.30198       -0.08111
H         -2.40953       -2.22901       -0.68646
H          3.45516        3.25078       -0.00110
