28
5251677.log	Energy: -477566.4558450
C         -2.61078        1.46636        0.16333
C         -3.65620        0.46520        0.10428
C         -3.41290       -0.85795       -0.17016
C         -2.13668       -1.26810       -0.36688
C         -0.87478       -1.67368       -0.56154
C          0.05748       -0.73386       -0.95511
C         -0.42256        0.63594       -1.24767
C         -0.07881        1.99412       -0.57928
C          0.79907        2.36503        0.55340
C          1.90618        1.78390        1.02632
C          3.67958        0.17625       -0.19396
C          2.37636        0.06862       -0.89741
C          2.44473        0.49126        0.58419
C         -1.40692        1.35500       -0.39066
C         -0.41151       -1.85819        2.38278
O          0.56170       -1.30457        2.59381
C          1.46831       -1.10202       -1.10164
O          1.86063       -2.24333       -1.24592
H         -2.86073        2.37673        0.72130
H         -4.68116        0.81757        0.22757
H         -4.23255       -1.57743       -0.29763
H         -0.58152       -2.72158       -0.37636
H         -0.57673        0.73355       -2.34450
H         -0.03763        2.81704       -1.32811
H          0.45743        3.30137        1.01605
H          2.46462        2.23972        1.85089
H          2.21055        0.84562       -1.66587
H          2.13567       -0.29663        1.31350
