33
525244.log	Energy: -497762.6766089
C          1.00450        1.13090        1.82700
N          2.22994        0.81574        1.04532
C          2.93356        2.04708        0.58394
C          2.05215       -0.17226       -0.01567
N          0.94620       -0.57344       -0.59432
C         -0.31631        0.05334       -0.58355
C         -1.40217       -0.63577       -0.00352
C         -2.68201       -0.09120       -0.12626
C         -2.91866        1.11201       -0.80429
C         -1.83406        1.78345       -1.37516
C         -0.54195        1.26948       -1.26779
N         -3.82979       -0.81229        0.48241
O         -3.59285       -1.81874        1.13084
O         -4.94632       -0.35107        0.30360
N          3.28959       -0.74880       -0.44637
C          3.17631       -1.79471       -1.50350
C          4.24139       -1.14758        0.62909
H          1.31716        1.63619        2.75845
H          0.49479        0.19826        2.12432
H          0.27801        1.78038        1.31478
H          2.31392        2.70679       -0.04250
H          3.26418        2.61528        1.46984
H          3.83627        1.77390        0.00907
H         -1.24469       -1.58635        0.51645
H         -3.93470        1.50703       -0.88393
H         -2.00272        2.71817       -1.91218
H          0.29658        1.79099       -1.72789
H          2.60702       -1.39185       -2.36185
H          4.18455       -2.05836       -1.85722
H          2.65715       -2.70808       -1.16979
H          5.24852       -1.23370        0.18816
H          4.28937       -0.38093        1.42285
H          3.97985       -2.10624        1.10486
