26
5255299.log	Energy: -572898.5459547
C         -0.04517        3.26200       -0.60070
C         -0.33415        2.43433        0.65336
C         -1.05362        1.16152        0.30284
C         -0.33734       -0.00996       -0.07529
C         -1.05053       -1.21414       -0.31012
C         -2.44810       -1.20902       -0.26166
C         -3.15196       -0.05332        0.07096
C         -2.44896        1.12098        0.36438
C         -0.31621       -2.49193       -0.62517
C          0.12977       -3.18230        0.66351
N          1.04280        0.03148       -0.18183
S          2.50077        0.07502       -0.29444
O          3.64055       -0.03747        0.54271
H          0.11050        2.61792       -1.47589
H          0.85812        3.86847       -0.47788
H         -0.87291        3.93718       -0.83741
H          0.61523        2.21713        1.18242
H         -0.93069        3.03732        1.36776
H         -2.98399       -2.13148       -0.48067
H         -4.23800       -0.06291        0.11708
H         -3.00490        2.01389        0.64782
H         -0.95608       -3.17215       -1.22278
H          0.56261       -2.28265       -1.26941
H         -0.71015       -3.66927        1.16944
H          0.89002       -3.94377        0.46095
H          0.56147       -2.45940        1.36798
