30
5293146.log	Energy: -473671.3205807
C          4.41207       -1.09254        0.05915
C          3.84711       -0.48067       -1.06372
C          2.48626       -0.16087       -1.08089
C          1.68917       -0.46687        0.03066
C          2.25424       -1.07716        1.16143
C          3.61552       -1.38793        1.17134
C          0.23003       -0.16265        0.02047
C         -0.64294       -1.19567       -0.01333
N         -2.06490       -1.16519       -0.06254
C         -2.86108       -2.16736       -0.65216
C         -4.18141       -1.76303       -0.48378
C         -4.12629       -0.51574        0.21922
N         -2.83346       -0.17145        0.46763
N         -0.11296        1.23124        0.03776
C         -0.92847        1.91372        0.95917
C         -0.87239        3.25639        0.60420
C         -0.00600        3.33106       -0.53666
N          0.45691        2.09701       -0.86210
H          5.47354       -1.33611        0.07077
H          4.46819       -0.24420       -1.92701
H          2.04603        0.33935       -1.94800
H          1.63646       -1.30033        2.03006
H          4.05841       -1.85820        2.04808
H         -0.24216       -2.22505       -0.03052
H         -2.45600       -3.03813       -1.13164
H         -5.06777       -2.26943       -0.80692
H         -4.95574        0.09860        0.52995
H         -1.47052        1.41697        1.74656
H         -1.37150        4.07775        1.07395
H          0.26711        4.21350       -1.09112
