30
5302962.log	Energy: -486278.6510106
C         -2.51551        2.25969       -0.81701
C         -2.44052        1.38793        0.44212
C         -3.55978        1.73510        1.42816
C         -2.53287       -0.06175        0.04622
N         -3.65865       -0.77294       -0.13022
C         -3.28204       -2.08664       -0.45880
C         -1.90254       -2.19827       -0.47930
N         -1.39471       -0.90701       -0.16814
C         -0.00236       -0.59363       -0.10862
C          0.47573        0.61018       -0.66166
C          1.83373        0.90571       -0.59784
C          2.71285       -0.00705        0.00756
C          2.24366       -1.21515        0.55126
C          0.88528       -1.50944        0.49452
N          4.15451        0.30719        0.07120
O          4.51783        1.37830       -0.38665
O          4.89101       -0.52347        0.57730
H         -3.44116        2.06904       -1.37891
H         -1.67195        2.06612       -1.49470
H         -2.50614        3.32569       -0.56273
H         -1.45776        1.56702        0.95377
H         -4.55233        1.57006        0.98211
H         -3.51393        1.10827        2.32682
H         -3.50489        2.78254        1.74141
H         -4.02990       -2.83811       -0.65056
H         -1.26738       -3.03381       -0.69887
H         -0.21482        1.30453       -1.15856
H          2.22623        1.83904       -1.02082
H          2.95174       -1.91128        1.01824
H          0.50963       -2.43854        0.92796
