24
5323952.log	Energy: -346554.1400607
C         -3.63707       -1.47770        0.10057
C         -2.41526       -0.64708        0.05251
C         -2.37419        0.75323        0.04925
N         -1.02056        1.13176        0.00476
C         -0.46133        2.40150       -0.02861
C          0.90694        2.52369       -0.07416
C          1.74674        1.36987       -0.08361
C          1.21303        0.10271       -0.05493
C         -0.20871       -0.05773       -0.01818
C         -1.08183       -1.14767        0.01155
C          2.05733       -1.13458       -0.07016
O          1.62664       -2.20710       -0.43157
C          3.47949       -0.98840        0.39857
H         -3.57729       -2.31863       -0.60725
H         -4.54418       -0.90889       -0.14097
H         -3.77659       -1.91210        1.10290
H         -3.17804        1.45888        0.07337
H         -1.14073        3.25800       -0.01877
H          1.36660        3.50981       -0.10355
H          2.82502        1.52917       -0.12133
H         -0.78349       -2.18061       -0.01412
H          4.09938       -0.48247       -0.35296
H          3.55686       -0.42751        1.33742
H          3.93250       -1.97814        0.56764
