22
5325317.log	Energy: -332795.3969426
C          2.45923       -0.44685        1.27642
C          1.63541       -0.41720       -0.00086
N          0.58490       -1.46704       -0.00549
C         -0.59962       -0.89196       -0.00082
C         -1.91915       -1.49723        0.00081
C         -3.01064       -0.69593       -0.00012
C         -2.91605        0.75787       -0.00286
C         -1.71782        1.39121        0.00096
C         -0.51775        0.59728        0.00165
N          0.78614        0.93416        0.00055
O          1.31032        2.03661        0.00142
C          2.46531       -0.44192       -1.27367
H          1.83319       -0.44787        2.17970
H          3.13992        0.41386        1.33927
H          3.06549       -1.36445        1.31743
H         -1.97239       -2.58507        0.00383
H         -4.01654       -1.12172        0.00228
H         -3.85143        1.31473       -0.00505
H         -1.61240        2.47666        0.00386
H          3.15726        0.41045       -1.32349
H          3.05987       -1.36682       -1.32347
H          1.84372       -0.42409       -2.18012
