29
5328051.log	Energy: -483786.1574096
C         -4.09951       -1.37612        0.57034
C         -4.29271       -0.59352       -0.57320
C         -3.34656        0.36238       -0.94557
C         -2.19728        0.53577       -0.15155
C         -2.00204       -0.23647        1.00596
C         -2.95626       -1.19455        1.35459
N         -1.25865        1.54329       -0.57517
C          0.09974        1.54156       -0.20561
N          0.60815        2.77579        0.06916
C          1.95626        2.86297        0.36856
N          2.80932        1.83296        0.44681
C          2.31681        0.56373        0.14871
C          3.18415       -0.54767        0.18501
C          2.68106       -1.80393       -0.16642
N          1.35390       -1.99106       -0.60175
C          0.54119       -0.94065       -0.61792
C          0.93544        0.37397       -0.21576
N          3.43439       -2.96178       -0.08406
H         -4.83936       -2.12402        0.85005
H         -5.18551       -0.73347       -1.18359
H         -3.49286        0.96065       -1.84367
H         -1.12089       -0.09171        1.63079
H         -2.80651       -1.80121        2.24868
H         -1.67243        2.48510       -0.68045
H          2.33506        3.87803        0.57836
H          4.21881       -0.39740        0.48486
H         -0.48259       -1.12525       -0.98337
H          3.06317       -3.82318       -0.45804
H          4.43152       -2.90678        0.02860
