28
5330889.log	Energy: -475351.4506918
C         -3.45526       -2.07271        0.00220
C         -4.43344       -1.07181        0.01768
C         -4.08736        0.28681        0.02500
C         -2.73541        0.61161        0.01578
C         -1.72094       -0.41814       -0.00031
C         -2.08827       -1.75572       -0.00730
C         -0.44309        0.28265       -0.00682
C          0.86076       -0.09920       -0.02213
C          1.30795       -1.48146       -0.02752
C          2.62628       -1.80557       -0.04002
N          3.57218       -0.76953       -0.15961
C          3.23204        0.57942       -0.02415
C          1.90826        0.93945       -0.02073
C          1.51513        2.34680       -0.01241
C          0.22108        2.73264        0.00256
C         -0.82985        1.72999        0.00656
N         -2.14374        1.92138        0.02043
O          4.90663       -1.10751        0.06177
H         -3.75955       -3.11755       -0.00371
H         -5.48583       -1.35173        0.02399
H         -4.84562        1.06669        0.03683
H         -1.33652       -2.54110       -0.02072
H          0.53653       -2.25790       -0.02611
H          3.01800       -2.82646       -0.03565
H          4.06034        1.29584       -0.00126
H          2.31942        3.08360       -0.02088
H         -0.08630        3.77998        0.00989
H          5.05999       -1.16266        1.06746
