25
53304.log	Energy: -401728.4523340
C         -4.80273       -0.12664        0.00248
C         -3.31129       -0.15276       -0.00784
C         -2.57596        1.00082       -0.00713
C         -1.14412        0.94677       -0.00328
N         -0.20886        1.91264       -0.00647
C          1.03553        1.25227       -0.00145
C          0.85876       -0.18040        0.00645
N         -0.53786       -0.38443        0.00587
C         -1.29854       -1.55646        0.00374
C         -2.65828       -1.44566       -0.00282
N          1.85563       -1.11016        0.03102
C          3.11455       -0.57585        0.00858
C          3.38860        0.83487        0.00851
C          2.35349        1.74982        0.00112
N          4.17659       -1.49664       -0.09555
H         -5.21225        0.87933       -0.16664
H         -5.19550       -0.47480        0.97036
H         -5.22711       -0.77954       -0.77410
H         -3.02879        1.99315       -0.01111
H         -0.74941       -2.50478        0.00919
H         -3.28084       -2.33868       -0.00390
H          4.42181        1.17307       -0.00616
H          2.52895        2.82644       -0.00283
H          3.93738       -2.47180        0.04915
H          5.04719       -1.23299        0.34173
