25
5331055.log	Energy: -458668.7017775
C          0.34584        3.03077        0.36998
N         -0.20555        1.77998       -0.19477
C          0.47031        0.54656       -0.07317
C          1.80002        0.23123       -0.05158
C          3.08868        0.88396       -0.03152
N          4.05641       -0.06270       -0.01839
N          3.51543       -1.30946       -0.02816
C          2.16542       -1.20688       -0.05108
C          1.15374       -2.23715       -0.07004
C         -0.16387       -1.90467       -0.06915
C         -0.56070       -0.51887       -0.05559
C         -1.77924        0.12674       -0.02001
N         -1.58686        1.52957        0.09289
C         -3.18433       -0.38518       -0.06567
O         -4.05984        0.19724       -0.68308
N         -3.42996       -1.54621        0.64342
H         -0.31037        3.88731        0.13576
H          1.32994        3.21688       -0.10634
H          0.49137        2.98939        1.46530
H          3.28831        1.93887       -0.02904
H          1.49719       -3.27511       -0.08770
H         -0.94358       -2.66182       -0.10632
H         -2.24556        2.15002       -0.40350
H         -2.72814       -2.02219        1.18627
H         -4.36203       -1.93867        0.65229
