30
5331184.log	Energy: -481456.6500714
C          4.94102        2.00389        0.07516
N          4.71651        0.54848       -0.14232
C          5.75207       -0.27394        0.54148
C          3.37398        0.08747       -0.06497
C          3.09874       -1.29565        0.07880
C          1.79347       -1.76591        0.00915
C          0.71847       -0.88089       -0.19111
C          0.98632        0.49342       -0.32846
C          2.28885        0.97456       -0.26450
C         -0.64962       -1.41572       -0.25862
N         -1.65609       -0.58937       -0.15756
N         -2.93944       -1.09233       -0.32665
C         -3.96061       -0.17060       -0.01569
N         -5.20533       -0.53494        0.46576
N         -5.90170        0.63843        0.45766
N         -5.13798        1.68183        0.02147
N         -3.95994        1.24038       -0.28074
H          5.99982        2.24606       -0.11347
H          4.67916        2.34680        1.08840
H          4.34719        2.58174       -0.65591
H          5.68636       -0.24091        1.64020
H          5.67064       -1.32693        0.21771
H          6.75267        0.07640        0.23799
H          3.91211       -2.00287        0.22719
H          1.60659       -2.83466        0.11600
H          0.15640        1.19070       -0.48571
H          2.46148        2.04187       -0.38399
H         -0.72237       -2.50621       -0.39515
H         -3.14690       -2.05301        0.00020
H         -6.87154        0.69387        0.75584
