34
5331489.log	Energy: -487728.2586708
C          2.33969       -1.20124        1.25776
C          3.44034       -0.56439        0.40640
C          4.37356       -1.64115       -0.16016
C          2.85528        0.27092       -0.75886
C          2.07994        1.47088       -0.28303
N          0.79413        1.56146       -0.06465
N         -0.02309        0.46228       -0.26078
C         -1.38901        0.61003       -0.06582
C         -1.98840        1.89979        0.10664
C         -3.34915        2.02890        0.24115
C         -4.19773        0.89066        0.20551
C         -3.65032       -0.35914        0.04985
C         -2.24067       -0.53633       -0.07896
N         -1.76000       -1.89276       -0.20276
O         -0.53926       -2.08067       -0.30433
O         -2.56347       -2.81104       -0.19709
C          2.86559        2.72367       -0.03564
H          1.64765       -1.81330        0.65999
H          1.74950       -0.44927        1.79260
H          2.76234       -1.86996        2.01772
H          4.04000        0.12084        1.05667
H          3.83615       -2.34657       -0.80527
H          5.18864       -1.20840       -0.74861
H          4.83024       -2.23033        0.64380
H          3.68497        0.60397       -1.41737
H          2.23386       -0.37822       -1.41117
H          0.38633       -0.50371       -0.31746
H         -1.33586        2.77701        0.12623
H         -3.79725        3.01619        0.37628
H         -5.27281        1.02172        0.30600
H         -4.28311       -1.25539        0.02521
H          3.62345        2.56063        0.74453
H          3.38369        3.05374       -0.94679
H          2.23208        3.56239        0.29725
