30
5333402.log	Energy: -486356.5107120
C         -4.21614       -0.68350       -0.65799
C         -3.28743       -1.35639        0.36363
C         -1.99151       -0.59609        0.49277
C         -1.88848        0.71826        0.20986
C         -3.03456        1.52006       -0.24721
O         -2.94088        2.70433       -0.49799
C         -4.37303        0.80883       -0.37315
N         -0.94260       -1.37834        1.09120
N          0.36530       -0.85701        1.06437
C          1.17666       -1.01335       -0.07654
O          0.85201       -1.77527       -0.97150
C          2.49956       -0.29004       -0.05462
C          3.53374       -0.73146       -0.89353
C          4.74389       -0.02581       -0.88089
C          4.88046        1.08334       -0.04569
C          3.79269        1.46111        0.76665
N          2.61734        0.78962        0.76892
H         -5.20622       -1.17908       -0.64739
H         -3.81097       -0.82765       -1.68126
H         -3.77944       -1.39144        1.36210
H         -3.12230       -2.41381        0.07451
H         -0.95800        1.28036        0.28899
H         -4.97418        1.29807       -1.16689
H         -4.94212        0.97646        0.56458
H         -0.93036       -2.36763        0.77246
H          0.52659       -0.09938        1.74480
H          3.38203       -1.59760       -1.54259
H          5.56777       -0.34124       -1.52293
H          5.80809        1.65307       -0.01908
H          3.85461        2.32766        1.43731
