29
5337892.log	Energy: -486205.6027682
C          1.64689        2.80634        0.07774
C          1.08452        1.43611        0.03385
C          1.91944        0.28072        0.00452
C          3.39352        0.34774       -0.00605
O          4.01611        1.39406       -0.00702
C          4.06799       -0.96532       -0.01888
C          3.39303       -2.13403       -0.03646
N          1.98587       -2.16923       -0.03665
C          1.25940       -0.97144       -0.01644
N         -0.11242       -1.09886       -0.01776
C         -0.83913        0.05986        0.00310
N         -0.26903        1.31717        0.02989
C         -2.31605       -0.03440       -0.00065
C         -3.09664        1.13184       -0.10164
C         -4.49010        1.04237       -0.10546
C         -5.11382       -0.20556       -0.00823
C         -4.34248       -1.36802        0.09322
C         -2.94881       -1.28749        0.09688
H          0.87909        3.59137        0.01276
H          2.38257        2.96430       -0.73473
H          2.22686        2.96674        1.00512
H          5.15788       -0.92813       -0.01639
H          3.88456       -3.11413       -0.05131
H          1.48100       -3.05631       -0.05679
H         -2.60940        2.10940       -0.17507
H         -5.09047        1.94747       -0.18312
H         -6.20145       -0.27256       -0.01039
H         -4.82892       -2.33919        0.16944
H         -2.34822       -2.19736        0.17529
