19
533871.log	Energy: -510540.5009913
C          2.84025        0.22369        0.29878
N          3.48346       -0.87145       -0.15145
O          2.63320       -1.51059       -1.05086
N          1.46654       -0.82395       -1.19940
C          1.51277        0.25214       -0.39788
N          0.64623        1.35779       -0.31502
N         -0.60878        1.27747       -0.06684
C         -1.34649        0.04117        0.21457
N         -0.89732       -1.06883        0.81773
O         -1.92258       -1.93307        0.92423
N         -3.09873       -1.39861        0.39245
C         -2.79601       -0.16221       -0.07157
N         -3.61281        0.69504       -0.77579
O         -1.30840        2.29022       -0.06995
N          3.24575        1.09005        1.30695
H         -4.61083        0.51749       -0.75002
H         -3.34560        1.67991       -0.78228
H          4.23499        1.06625        1.53603
H          2.87014        2.03246        1.24497
