32
5339371.log	Energy: -655735.1938172
C          3.53585       -1.70617        1.64610
C          2.84393       -2.22537        0.40613
S          2.91046       -1.00203       -0.94687
C          1.84576        0.27997       -0.40450
N          0.56883       -0.05127       -0.39446
N         -0.36980        0.81676       -0.04675
C         -1.74619        0.39428       -0.03152
C         -2.14562       -0.89075       -0.43598
C         -3.49802       -1.22856       -0.39644
C         -4.45765       -0.30207        0.04083
C         -4.04354        0.97964        0.44203
C         -2.69704        1.33566        0.40948
C         -5.90342       -0.67259        0.09533
C          2.44147        1.58843       -0.06183
O          1.70628        2.50075        0.29831
C          3.91912        1.76429       -0.16345
H          4.58169       -1.43232        1.45324
H          3.54336       -2.46422        2.44179
H          3.03455       -0.81874        2.05587
H          3.34070       -3.13275        0.00772
H          1.79001       -2.49534        0.61102
H         -0.15229        1.80204        0.22541
H         -1.40472       -1.61513       -0.78082
H         -3.80727       -2.22534       -0.71037
H         -4.78114        1.70502        0.78448
H         -2.39208        2.33307        0.72323
H         -6.13649       -1.55427       -0.51672
H         -6.20908       -0.90515        1.12655
H         -6.55033        0.14177       -0.25986
H          4.46626        1.02648        0.44361
H          4.27364        1.63443       -1.19845
H          4.22446        2.76799        0.16818
