24
53441027.log	Energy: -429569.1354158
C         -3.79731        0.01674        0.25104
C         -3.24005       -1.20387        0.17425
C         -1.79094       -1.38931       -0.06103
O         -1.33702       -2.50389       -0.24376
C         -0.92887       -0.15322       -0.06401
C          0.43350       -0.19983       -0.09033
C          1.20773       -1.45416       -0.11837
C          2.54264       -1.48183       -0.01992
C          3.34926       -0.23836        0.11369
O          4.54999       -0.25098        0.27834
C          2.57891        1.03263        0.02415
C          1.23524        1.05603       -0.07524
C          0.50576        2.32601       -0.16366
C         -0.83572        2.36334       -0.14116
C         -1.63747        1.13912       -0.02559
C         -2.98517        1.21404        0.12254
H         -4.86959        0.15260        0.41057
H         -3.81302       -2.12857        0.26072
H          0.63053       -2.39040       -0.22575
H          3.11634       -2.41130       -0.03194
H          3.18692        1.93915        0.04688
H          1.10652        3.23426       -0.24547
H         -1.38270        3.30655       -0.20442
H         -3.50378        2.17269        0.15457
