23
5354134.log	Energy: -288984.2141258
C         -4.04159        0.98825       -0.46090
C         -2.96987        0.05932       -0.00646
C         -1.74483        0.01960       -0.53647
C         -0.68707       -0.95030       -0.07746
C          0.69845       -0.33113       -0.07925
C          0.91807        0.92554        0.50241
C          2.20440        1.46973        0.52888
C          3.27536        0.76640       -0.03210
C          3.05707       -0.48191       -0.62177
C          1.77246       -1.03359       -0.64135
O         -0.97518       -1.47214        1.23191
H         -3.74340        1.60789       -1.31655
H         -4.33872        1.67183        0.34757
H         -4.94190        0.43267       -0.76194
H         -3.25210       -0.61225        0.81159
H         -1.43892        0.66838       -1.35601
H         -0.72919       -1.88201       -0.69796
H          0.08346        1.48075        0.92813
H          2.37304        2.44263        0.98725
H          4.27704        1.19174       -0.01020
H          3.88849       -1.02897       -1.06295
H          1.61158       -2.01354       -1.08856
H         -0.88258       -0.77346        1.91111
