28
5356627.log	Energy: -501033.6381077
C         -1.40720        2.65842       -0.18978
C         -2.80200        2.65706       -0.19229
C         -3.52326        1.44927       -0.11097
C         -2.80085        0.27242       -0.02936
C         -1.37826        0.27153       -0.02504
C         -0.67197        1.45890       -0.10710
C         -0.92984       -1.13034        0.06324
C          0.26020       -1.73750        0.09450
C          1.54615       -1.02876        0.06933
C          2.34860       -1.08938       -1.08693
C          3.57784       -0.44113       -1.12660
C          3.99969        0.26310        0.01586
C          3.22312        0.33484        1.18043
C          1.99013       -0.32157        1.19620
O          5.22319        0.87744       -0.09758
O         -2.09012       -1.95170        0.11078
C         -3.26533       -1.13269        0.05814
O         -4.32716       -1.67728        0.09012
H         -0.86771        3.60526       -0.25619
H         -3.34681        3.59910       -0.25810
H         -4.61385        1.44412       -0.11396
H          0.41853        1.47083       -0.11189
H          0.31889       -2.83143        0.14102
H          1.99981       -1.64724       -1.95752
H          4.21635       -0.46930       -2.00734
H          3.56861        0.87804        2.05372
H          1.37128       -0.28851        2.09399
H          5.48544        1.34650        0.73182
