22
5358294.log	Energy: -470025.3494979
C          4.99521        0.46582       -0.26431
O          3.55101        0.62421       -0.39690
C          2.78913       -0.33275        0.19735
O          3.22977       -1.28358        0.80109
C          1.33194       -0.06797       -0.02871
N          0.82044        1.13485        0.00028
N         -0.52367        1.27751       -0.27743
C         -1.33178        0.07653       -0.03449
N         -0.82072       -1.12673       -0.01076
N          0.52424       -1.26696       -0.28408
C         -2.79032        0.33642        0.18846
O         -3.23757        1.29072        0.78210
O         -3.54673       -0.63237       -0.39347
C         -4.99179       -0.48712       -0.25296
H          5.36848        1.32276       -0.83831
H          5.30514       -0.48833       -0.70217
H          5.27612        0.52536        0.79177
H         -0.90321        2.14653        0.15131
H          0.90245       -2.14027        0.13615
H         -5.26428       -0.52183        0.80637
H         -5.31505        0.45138       -0.71408
H         -5.35779       -1.36371       -0.80157
