27
5362046.log	Energy: -541976.4440788
C         -5.01713       -0.94446        0.59945
C         -4.50101       -0.01123       -0.51818
C         -2.99168       -0.14064       -0.36848
N         -2.56722       -0.92149        0.58703
C         -3.73869       -1.50660        1.28716
N         -2.15215        0.49051       -1.35528
N         -0.76491        0.45775       -1.10344
C         -0.18978        1.37546       -0.19623
O         -0.78745        2.36429        0.18496
C          1.23998        1.13292        0.13062
C          2.17496        1.89057        0.80402
C          3.38671        1.12611        0.82853
C          3.10755       -0.05019        0.16564
O          1.78174       -0.08772       -0.28527
N          3.89471       -1.24071       -0.15490
O          5.05094       -1.23402        0.22886
O          3.34239       -2.12870       -0.77147
H         -5.63575       -1.75753        0.18705
H         -5.64854       -0.39935        1.31868
H         -4.83903       -0.33285       -1.51949
H         -4.84247        1.02872       -0.38071
H         -3.68814       -1.23730        2.36165
H         -3.68240       -2.61236        1.22373
H         -2.45246        1.46670       -1.55447
H         -0.36210       -0.48797       -1.21380
H          2.02740        2.87027        1.23298
H          4.32413        1.41679        1.27872
