9
53628592.log	Energy: -107202.1848434
C          1.02211       -0.03193        0.00103
C          0.00083        1.02912        0.00374
H          0.00399        2.08151       -0.01228
C         -1.02240       -0.02932       -0.00038
N         -0.00082       -1.08675       -0.00235
H          1.70500       -0.07655        0.88039
H          1.69718       -0.06527       -0.88644
H         -1.70692       -0.06691       -0.87866
H         -1.69675       -0.07273        0.88704
