23
53633356.log	Energy: -639211.6640841
C          3.79343       -1.80556        0.90365
C          4.29990       -0.72489        0.31464
C          3.74440       -0.15631       -0.95617
O          2.60537        0.73072       -0.65338
N          1.45045       -0.01611       -0.55964
C          0.41073        0.67300       -0.18957
C          0.35923        2.15907        0.14884
O          0.63176        2.57569        1.24361
C         -0.88916       -0.01324       -0.10434
C         -1.12397       -1.34948        0.05933
S         -2.83420       -1.65559        0.11993
C         -3.15212        0.09792       -0.07520
N         -2.03826        0.81925       -0.17151
N         -4.44409        0.56354       -0.22338
H          2.94640       -2.35653        0.51316
H          4.17849       -2.21124        1.82945
H          5.13786       -0.17206        0.74119
H          4.42036        0.57548       -1.43940
H          3.44314       -0.92913       -1.68524
H          0.04002        2.78844       -0.69517
H         -0.39764       -2.14151        0.13927
H         -5.18288        0.06211        0.25091
H         -4.56691        1.57270       -0.22026
