26
5364352.log	Energy: -531234.4551582
C          4.68767        0.36924       -0.82139
C          4.14138       -0.19357        0.47104
O          2.76233       -0.66153        0.27004
C          1.77410        0.26622        0.22791
O          2.00903        1.46809        0.38421
C          0.44936       -0.31450        0.00427
C         -0.69702        0.47398        0.03830
C         -2.07244        0.03723       -0.03306
C         -3.11423        0.92637       -0.22109
C         -2.86852        2.31801       -0.22874
C         -1.58118        2.76603       -0.02232
N         -0.53113        1.88209        0.10479
N         -2.45078       -1.38931        0.15776
O         -2.02338       -1.94705        1.14444
O         -3.22195       -1.85305       -0.65978
C          0.42854       -1.70298       -0.28515
N          0.46088       -2.82820       -0.55501
H          4.54745       -0.33013       -1.65766
H          5.76087        0.58182       -0.74379
H          4.18333        1.30781       -1.09456
H          4.62049       -1.14405        0.77562
H          4.14664        0.53834        1.29754
H         -4.14317        0.55888       -0.34136
H         -3.69045        3.01825       -0.37545
H         -1.33221        3.83596        0.04081
H          0.46007        2.25295        0.25631
