31
536465.log	Energy: -499461.5268102
C         -5.64382       -0.83715       -1.11892
C         -5.27733       -0.11520        0.18188
C         -6.14406       -0.58650        1.35175
N         -3.84332       -0.36234        0.52424
C         -2.83644        0.39717       -0.02043
C         -1.51072        0.08776        0.11242
C         -0.51001        0.98971       -0.42063
O         -0.76163        2.04584       -0.97772
C          0.93171        0.56113       -0.24902
C          1.35227       -0.70030       -0.69205
C          2.68614       -1.08078       -0.54372
C          3.58701       -0.18635        0.05449
C          3.17752        1.08187        0.49240
C          1.84133        1.45249        0.33453
N          5.00223       -0.58899        0.21906
O          5.31807       -1.70968       -0.14890
O          5.76936        0.22083        0.71440
H         -5.55194       -1.92615       -1.03170
H         -5.00461       -0.52498       -1.95415
H         -6.68062       -0.62516       -1.40832
H         -5.41503        0.99196        0.04226
H         -6.09543       -1.67114        1.50362
H         -5.84747       -0.10833        2.29505
H         -7.19865       -0.33543        1.17971
H         -3.62409       -1.26092        0.94529
H         -3.13471        1.32006       -0.55356
H         -1.16950       -0.80360        0.62431
H          0.63897       -1.38224       -1.15809
H          3.03578       -2.06106       -0.88405
H          3.90380        1.76527        0.94526
H          1.50313        2.44198        0.65286
