14
5367925.log	Energy: -371158.1826924
C         -2.89862        0.60039        0.02050
S         -1.57265       -0.62510       -0.00924
C         -0.12104        0.35699       -0.00878
C          1.06987       -0.25224       -0.00770
C          2.33395        0.49102       -0.01430
C          3.52732       -0.10636        0.02053
H         -3.85282        0.05569       -0.00917
H         -2.86415        1.26804       -0.84676
H         -2.88209        1.20409        0.93406
H         -0.24419        1.43757       -0.01209
H          1.16125       -1.34323       -0.00205
H          2.24995        1.58040       -0.04985
H          4.46089        0.43826        0.01488
H          3.66477       -1.17802        0.05723
