30
5367034.log	Energy: -488782.3551988
C          6.18665       -0.26793        0.43176
O          5.20214        0.63161       -0.13033
C          3.87963        0.24536       -0.09118
C          3.01363        1.21502       -0.63819
C          1.64969        0.95547       -0.66279
C          1.13802       -0.25481       -0.14937
C          2.02371       -1.20830        0.37794
C          3.39957       -0.96766        0.41705
C         -0.29912       -0.54693       -0.16791
C         -1.23384        0.38931        0.05819
N         -2.64504        0.12914        0.03865
C         -3.27728       -1.14253       -0.17846
O         -2.69521       -2.17418       -0.39194
C         -4.78111       -0.92602       -0.09190
C         -4.99043        0.56174        0.20715
C         -3.60511        1.17881        0.27674
O         -3.30057        2.32358        0.48651
H          7.11905        0.28675        0.26330
H          6.19210       -1.21619       -0.11334
H          6.00426       -0.41189        1.50048
H          3.42700        2.14202       -1.02932
H          0.96936        1.69254       -1.09052
H          1.63586       -2.14959        0.76949
H          4.06714       -1.71418        0.83273
H         -0.56486       -1.59220       -0.37343
H         -1.00192        1.44058        0.28365
H         -5.21584       -1.58005        0.68980
H         -5.26353       -1.23723       -1.04003
H         -5.53215        0.73010        1.15943
H         -5.59607        1.06818       -0.57093
