21
5367968.log	Energy: -490706.0134222
C         -4.97848        0.01719       -0.07400
C         -3.65321       -0.06076       -0.22129
C         -2.72744        0.07111        0.90624
C         -1.39342        0.08282        0.82476
S         -0.58224       -0.06761       -0.72657
C          1.12609       -0.02467       -0.27613
C          1.80478       -1.22670       -0.07090
C          3.17456       -1.19400        0.21265
C          3.84545        0.03142        0.28550
C          3.15232        1.22883        0.07790
C          1.78244        1.20524       -0.20504
H         -5.47374        0.17943        0.87213
H         -5.66851       -0.07562       -0.90034
H         -3.21134       -0.22909       -1.20837
H         -3.20391        0.17108        1.89027
H         -0.75370        0.18607        1.70070
H          1.27935       -2.18059       -0.13121
H          3.71771       -2.12326        0.37534
H          4.91246        0.05331        0.50400
H          3.67830        2.18032        0.13453
H          1.24070        2.13733       -0.37005
