20
5367963.log	Energy: -420150.6023394
C          3.34548       -0.57739        0.15376
C          2.10525        0.27283        0.36325
C          2.10640        1.54599       -0.46042
S          0.71090       -0.80614       -0.18756
C         -0.71452        0.03765        0.39528
C         -1.90766       -0.29087       -0.11203
C         -3.15627        0.32363        0.35229
C         -4.33656        0.08964       -0.22641
H          3.47008       -0.89044       -0.89268
H          3.33018       -1.49033        0.76517
H          4.25328       -0.02228        0.42632
H          1.97100        0.50561        1.44501
H          2.21513        1.34435       -1.53557
H          1.17939        2.12094       -0.33914
H          2.93653        2.20504       -0.17378
H         -0.57115        0.78278        1.17381
H         -2.01128       -1.03843       -0.90555
H         -3.07120        0.99750        1.20895
H         -5.25880        0.54214        0.10847
H         -4.47032       -0.56758       -1.07433
