26
53688907.log	Energy: -427730.3074616
C          3.71409       -0.32247        0.34734
C          3.16785        0.25288       -0.74507
N          1.75731        0.18281       -1.04238
C          1.04175        1.45477       -1.12151
C          0.60461        1.97003        0.05661
C         -0.82911        1.88149        0.28445
C         -1.29520        0.60974        0.13578
C         -2.77172        0.39784        0.32783
O         -3.46389        1.26858        0.82111
C         -3.33221       -0.88440       -0.14189
C         -2.53844       -1.87624       -0.58302
C         -1.09160       -1.74109       -0.58907
C         -0.48689       -0.58245       -0.22251
N          0.99455       -0.69992       -0.18191
C          1.51545       -0.98858        1.12163
C          2.84664       -0.90234        1.35553
H          4.78855       -0.34807        0.51204
H          3.72818        0.79631       -1.50876
H          0.65337        1.68054       -2.11190
H          1.23450        2.02008        0.94717
H         -1.44674        2.72456        0.59240
H         -4.41847       -0.96209       -0.09778
H         -2.94690       -2.82542       -0.93877
H         -0.50571       -2.61435       -0.88927
H          0.80050       -1.37460        1.85175
H          3.28951       -1.24088        2.28757
