22
5369751.log	Energy: -311972.8350394
C          4.33607        1.52629       -0.07229
C          3.57420        0.62213        0.15552
C          2.65043       -0.46925        0.42870
C          1.22156        0.02206        0.45267
C          0.21032       -0.68159       -0.06538
C         -1.19470       -0.24482       -0.04439
C         -2.20925       -1.20458        0.12253
C         -3.54887       -0.81202        0.14026
C         -3.89005        0.53568       -0.01605
C         -2.88564        1.49212       -0.18882
C         -1.54251        1.10663       -0.20326
O          2.83778       -1.52769       -0.52612
H          4.99532        2.29894       -0.26728
H          2.90531       -0.98834        1.39429
H          1.07835        0.98276        0.94840
H          0.39069       -1.65696       -0.53521
H         -1.94998       -2.25511        0.24409
H         -4.33054       -1.55834        0.27400
H         -4.93548        0.83776       -0.00463
H         -3.14843        2.54150       -0.31295
H         -0.76575        1.85590       -0.34645
H          2.72889       -1.19252       -1.44222
