26
5372557.log	Energy: -523508.9078489
C          3.05731       -2.36892        0.28392
C          4.02975       -1.41277       -0.02627
C          3.65434       -0.08561       -0.24769
C          2.30473        0.28008       -0.15878
C          1.31957       -0.68398        0.13811
C          1.70800       -2.01155        0.36800
C         -0.08816       -0.25371        0.18574
C         -1.10330       -1.07521       -0.15801
C         -2.50843       -0.77420       -0.21525
C         -3.61994       -1.55475       -0.48109
C         -4.76464       -0.69752       -0.39569
C         -4.29437        0.55910       -0.08789
O         -2.91382        0.55388        0.03395
C         -0.29425        1.15814        0.60605
O         -1.15739        1.64338        1.27830
O          0.66834        2.06984        0.12706
C          1.92607        1.69346       -0.37260
O          2.56155        2.57702       -0.87808
H          3.35306       -3.40391        0.46548
H          5.07883       -1.70031       -0.09324
H          4.40394        0.67422       -0.49005
H          0.96523       -2.76490        0.62692
H         -0.87542       -2.11406       -0.45589
H         -3.64384       -2.60406       -0.70957
H         -5.78411       -0.99882       -0.54638
H         -4.72726        1.52361        0.08163
