25
5373615.log	Energy: -300284.3139263
C          0.50679        2.07533        0.35807
N          0.25638        0.61371        0.33473
C          1.33799       -0.25573        0.05677
C          2.63378        0.12210       -0.00947
C          3.70722       -0.84319       -0.22089
C          4.99955       -0.50528       -0.26616
C         -1.08383        0.16613        0.11095
C         -1.41758       -1.18134        0.37800
C         -2.73120       -1.61724        0.21796
C         -3.73116       -0.73321       -0.20116
C         -3.40283        0.59956       -0.46188
C         -2.09183        1.05611       -0.31472
H          1.51253        2.28329        0.76716
H         -0.22114        2.56744        1.02680
H          0.44476        2.53340       -0.64354
H          1.05213       -1.31160       -0.06138
H          2.93962        1.16244        0.09773
H          3.40035       -1.88625       -0.34369
H          5.79047       -1.22277       -0.42151
H          5.36119        0.50490       -0.15235
H         -0.65769       -1.87821        0.72670
H         -2.98134       -2.65718        0.42849
H         -4.75391       -1.07934       -0.32150
H         -4.17650        1.29402       -0.79054
H         -1.86660        2.09447       -0.54027
