27
537401.log	Energy: -541885.9328923
C         -4.56099       -0.86060        0.75959
N         -3.14876       -1.10180        0.32827
C         -2.17052       -0.99425        1.44873
N         -2.91212       -0.56621       -0.87644
C         -1.75612       -0.28919       -1.40139
C         -0.38341       -0.31786       -0.85989
C          0.21969        0.81695       -0.28194
C          1.56234        0.81098        0.11270
C          2.29729       -0.36956       -0.03986
C          1.71429       -1.52408       -0.59583
C          0.38613       -1.48824       -1.00411
N          3.71596       -0.40441        0.38497
O          4.17389        0.60529        0.88924
O          4.32614       -1.44352        0.20444
N         -0.55944        2.06772       -0.07254
O         -1.53888        1.99202        0.64735
O         -0.14535        3.07529       -0.60702
H         -4.85591       -1.66939        1.44753
H         -5.24125       -0.89490       -0.11165
H         -4.69883        0.11259        1.25812
H         -2.60624       -1.40517        2.37314
H         -1.27668       -1.59644        1.22069
H         -1.86231        0.04903        1.65350
H         -1.78633        0.00056       -2.46955
H          2.03860        1.70944        0.53347
H          2.31704       -2.43563       -0.70554
H         -0.07625       -2.37479       -1.44957
