15
53758237.log	Energy: -306708.0745032
C         -2.51338        0.69814       -0.17197
C         -2.51367       -0.69776       -0.17326
C         -1.33569       -1.44797        0.00925
C         -0.14598       -0.76891        0.11572
C         -0.14538        0.76879        0.11598
C         -1.33495        1.44783        0.00912
C          1.28703        1.06309        0.22726
N          2.16053        0.64668       -0.82032
N          2.15992       -0.64812       -0.81996
C          1.28631       -1.06161        0.22909
O          1.48889       -0.00007        1.22084
H         -3.45854        1.23276       -0.30136
H         -3.45898       -1.23194       -0.30344
H         -1.37131       -2.53812        0.07712
H         -1.37114        2.53818        0.07572
