27
5375444.log	Energy: -544438.7671469
C         -2.87854       -2.52211        0.01424
C         -2.96454       -1.03528       -0.00221
O         -4.04677       -0.46158       -0.01111
C         -1.71180       -0.22577       -0.00392
C         -0.45063       -0.81725       -0.00170
C          0.73654       -0.05169       -0.00269
C          0.61638        1.36714       -0.00148
C         -0.64002        1.97824       -0.00300
C         -1.80406        1.18883       -0.00610
O         -2.96448        1.87927       -0.01026
N          1.77823        2.28608        0.00410
O          2.90708        1.79960       -0.03435
O          1.56255        3.48126        0.04642
N          2.01023       -0.67775       -0.00516
C          2.25746       -2.07539        0.00421
O          1.35943       -2.89426        0.02238
C          3.71570       -2.41955       -0.01040
H         -3.88223       -2.98015       -0.00319
H         -2.36860       -2.89946        0.91525
H         -2.32776       -2.92037       -0.85273
H         -0.36971       -1.91805        0.00122
H         -0.73743        3.07313       -0.00110
H         -3.79611        1.25692       -0.01547
H          2.83233       -0.03705       -0.02127
H          4.23850       -2.02202       -0.89313
H          4.24620       -2.05263        0.88094
H          3.84409       -3.51604       -0.02941
