36
5376919.log	Energy: -455110.6470411
C         -5.83182        1.40115       -0.27271
N         -5.26817        0.02337       -0.20189
C         -6.05080       -0.83046        0.73540
C         -3.84541       -0.06793       -0.09697
C         -3.23320       -1.25201        0.37796
C         -1.84969       -1.39125        0.34869
C         -1.02711       -0.35968       -0.13801
C         -1.63422        0.81411       -0.61403
C         -3.01822        0.96523       -0.59375
C          0.42985       -0.53483       -0.15019
C          1.30564        0.45749        0.07207
C          2.76287        0.27897        0.05124
C          3.38733       -0.54002       -0.90494
C          4.77091       -0.69847       -0.91710
C          5.55846       -0.02582        0.04043
C          4.94161        0.80031        1.00533
C          3.55845        0.95151        0.99730
N          6.97241       -0.11153       -0.01469
H         -6.92065        1.34448       -0.43431
H         -5.40671        1.92705       -1.14593
H         -5.64267        2.00667        0.62710
H         -5.76013       -1.88748        0.60181
H         -5.92001       -0.56293        1.79530
H         -7.12191       -0.76069        0.48527
H         -3.84070       -2.07017        0.75842
H         -1.39823       -2.31266        0.71713
H         -1.01544        1.61784       -1.01354
H         -3.45327        1.88423       -0.97967
H          0.76965       -1.55587       -0.34307
H          0.96943        1.47169        0.30105
H          2.78223       -1.05277       -1.65352
H          5.23841       -1.32615       -1.67043
H          5.54241        1.32707        1.74104
H          3.08536        1.59472        1.73967
H          7.35067       -0.91087       -0.50189
H          7.46387        0.07326        0.84728
