27
5384870.log	Energy: -415444.8597175
C         -5.08619       -1.07130        0.32523
C         -3.77122       -0.39795        0.12610
C         -3.72674        0.99113       -0.27070
N         -2.58891        1.67060       -0.46972
C         -1.43719        0.96642       -0.27316
C         -0.04950        1.31944       -0.38050
C          0.69339        0.19020       -0.06367
N         -0.17343       -0.89155        0.24357
C         -1.48675       -0.43164        0.12644
N         -2.65237       -1.12376        0.32900
C          2.14760        0.02146       -0.01907
C          2.75944       -1.09622       -0.61004
C          4.14817       -1.23661       -0.55915
C          4.93060       -0.26636        0.07533
C          4.32357        0.85032        0.65877
C          2.93515        0.99750        0.61415
H         -5.66307       -0.59216        1.12962
H         -4.96830       -2.13316        0.60031
H         -5.69412       -1.04028       -0.59072
H         -4.66216        1.53958       -0.42425
H          0.32048        2.28522       -0.66867
H          0.10215       -1.81050        0.54004
H          2.15655       -1.84438       -1.12251
H          4.62285       -2.10299       -1.01825
H          6.01314       -0.37973        0.11357
H          4.93332        1.60770        1.15037
H          2.45998        1.86539        1.07210
