24
53867589.log	Energy: -717542.5430067
C         -1.53430       -1.15218       -0.44321
C         -1.62963        0.15694       -0.05922
N         -2.91439        0.60345        0.34339
C         -3.80150       -0.38683        0.27287
S         -3.08799       -1.92505       -0.30562
N         -5.11389       -0.33859        0.70007
C         -0.53799        1.14123       -0.03006
N          0.73441        0.96011       -0.21469
O          1.09995       -0.34758       -0.48376
C          2.55075       -0.41433       -0.67641
C          3.22852       -0.44527        0.70213
N          4.57102       -1.04817        0.63514
N          5.57145       -0.41506        0.23409
N          6.59704       -0.04183       -0.08783
C         -0.98419        2.57728        0.27146
O         -0.91840        3.44618       -0.55469
H         -0.66110       -1.68258       -0.79159
H         -5.49132        0.58165        0.91095
H         -5.77762       -0.96176        0.25974
H          2.63407       -1.37819       -1.21685
H          2.89875        0.41465       -1.31382
H          3.20803        0.56268        1.17375
H          2.65414       -1.12270        1.38819
H         -1.37897        2.69778        1.29055
