23
53875341.log	Energy: -473044.6907915
C         -3.56237        1.51414        0.21470
C         -4.09266        0.22823        0.15358
C         -3.21937       -0.87277       -0.00903
C         -1.82253       -0.67270       -0.08890
C         -1.32917        0.63035       -0.01777
C         -2.18622        1.73919        0.13286
N          0.08137        0.91261       -0.08913
C          1.09345       -0.03406       -0.17897
O          0.96559       -1.23718       -0.20192
C          2.50807        0.61947       -0.23299
O          2.69965        1.77308       -0.48880
C          3.65605       -0.36896        0.03728
O          4.33290       -0.96142       -0.75564
O          3.82572       -0.46439        1.38852
N         -3.74038       -2.16525       -0.16056
H         -4.23464        2.36662        0.33112
H         -5.16540        0.07661        0.21310
H         -1.14861       -1.52286       -0.21594
H         -1.79910        2.75091        0.18637
H          0.33930        1.90987       -0.10702
H          4.55600       -1.09894        1.64422
H         -4.68139       -2.34261        0.14958
H         -3.11556       -2.94925       -0.05541
