24
53921970.log	Energy: -427110.8431629
C         -3.45319       -1.53422        0.32356
C         -2.22303       -2.25174        0.36387
C         -1.03003       -1.59377        0.19336
C         -0.99686       -0.18174       -0.03295
C         -2.22473        0.53332       -0.04919
C         -3.45443       -0.17870        0.12724
C         -2.21919        1.95106       -0.23181
C         -1.03537        2.62899       -0.38198
C          0.19889        1.92476       -0.37498
C          0.22808        0.55162       -0.22518
C          1.50915       -0.13199       -0.27930
C          1.95015       -1.17342       -1.00333
N          3.38103       -1.44906       -0.66118
N          3.80584       -0.65987        0.18547
C          2.70607        0.33676        0.58622
O          2.83137        1.22079        1.36132
H         -4.38528       -2.08215        0.45635
H         -2.24845       -3.32726        0.53672
H         -0.09197       -2.14479        0.24345
H         -4.38733        0.38301        0.10318
H         -3.17184        2.48101       -0.24344
H         -1.01869        3.71132       -0.50987
H          1.12330        2.49170       -0.49395
H          1.48824       -1.80239       -1.74626
