24
53932850.log	Energy: -346554.6613027
C         -4.10443       -1.24292        0.31405
C         -2.73979       -0.63724        0.62332
C         -1.90466       -0.45216       -0.65840
C         -0.59999        0.16509       -0.35470
C          0.63655       -0.34792       -0.20451
C          1.19853       -1.67918       -0.28212
C          2.52119       -1.86344       -0.07955
C          3.42123       -0.74921        0.22182
C          2.98709        0.52578        0.31489
C          1.57622        0.81498        0.11116
N          0.95316        1.96770        0.15670
C         -0.47223        1.70236       -0.12455
O         -1.33695        2.52170       -0.16169
H         -4.70058       -0.59020       -0.33532
H         -4.68289       -1.39868        1.23303
H         -4.01898       -2.21441       -0.18567
H         -2.86934        0.34360        1.12625
H         -2.19079       -1.27957        1.33911
H         -1.77079       -1.42913       -1.16822
H         -2.46793        0.18804       -1.37610
H          0.51755       -2.50163       -0.50300
H          2.97302       -2.85435       -0.13064
H          4.47452       -0.99860        0.37050
H          3.64140        1.37060        0.53817
