20
53965851.log	Energy: -648525.7717396
C         -0.47515       -1.11924       -0.32473
C         -0.73552        0.21380       -0.16836
N         -2.08105        0.56934        0.10611
C         -2.85634       -0.51261        0.14600
S         -1.95687       -2.03169       -0.15019
N         -4.23458       -0.52519        0.27185
C          0.24715        1.30607       -0.22637
N          1.54458        1.24388       -0.27425
O          2.06220       -0.04511       -0.26325
C          3.53632        0.07855       -0.32644
C          4.02764       -1.15610        0.27750
N          4.43932       -2.12982        0.74515
C         -0.35965        2.72003       -0.22282
O         -0.12187        3.51480        0.64432
H          0.47027       -1.60259       -0.52125
H         -4.67020        0.35909        0.52847
H         -4.65445       -1.32892        0.72283
H          3.81277        0.16276       -1.39976
H          3.87779        0.98045        0.23021
H         -1.03338        2.88819       -1.07670
