20
5404565.log	Energy: -363434.0525668
C         -2.40727       -1.32765        0.73689
C         -1.32641       -0.47144        0.96353
C         -1.23218        0.71875        0.22715
C         -2.23854        1.00518       -0.72237
N         -3.28520        0.17625       -0.95006
C         -3.36408       -0.97314       -0.22646
C         -0.14347        1.68703        0.43197
N          1.14678        1.58230        0.36780
N          1.85154        0.44977        0.07432
C          3.26854        0.46158       -0.10913
N          3.66560       -0.79053       -0.38612
C          2.48854       -1.57103       -0.36909
N          1.38330       -0.83519       -0.09281
H         -2.50027       -2.25880        1.29221
H         -0.56049       -0.73083        1.69730
H         -2.20718        1.91865       -1.32878
H         -4.22627       -1.61645       -0.44125
H         -0.48476        2.71763        0.67992
H          3.87651        1.35287       -0.02814
H          2.49741       -2.63695       -0.55811
