28
5407504.log	Energy: -501023.5351212
C         -5.64326       -0.17701        0.00175
C         -4.96551        1.04674        0.00072
C         -3.56999        1.07438       -0.00021
C         -2.84379       -0.13063       -0.00072
C         -3.52784       -1.35936       -0.00068
C         -4.92384       -1.37713        0.00075
C         -1.38740       -0.10538       -0.00099
C         -0.42509       -1.06324        0.00232
C          0.89083       -0.41789        0.00055
C          2.08490       -1.03737        0.00225
C          3.38150       -0.41950        0.00030
C          3.91593        0.85093        0.00575
C          5.34630        0.70930        0.00387
C          5.61333       -0.63705       -0.00237
O          4.43581       -1.37471       -0.00454
C          0.60744        1.04919       -0.00226
O          1.25432        2.05433       -0.00227
O         -0.82489        1.19306       -0.00428
H         -6.73272       -0.19549        0.00308
H         -5.52659        1.98084        0.00105
H         -3.03139        2.02644       -0.00062
H         -2.97216       -2.29640       -0.00181
H         -5.45396       -2.32873        0.00095
H         -0.55722       -2.12907        0.00522
H          2.11351       -2.14136        0.00416
H          3.37707        1.78884        0.00956
H          6.04814        1.52225        0.00672
H          6.49242       -1.24464       -0.00576
