27
54163161.log	Energy: -656497.5851225
C          3.15168       -2.12987        0.02094
C          3.94841       -1.08160       -0.43990
C          3.44042        0.22911       -0.50833
C          2.13399        0.45002       -0.10676
C          1.31232       -0.62576        0.34858
C          1.81884       -1.91520        0.41864
C         -0.02539       -0.09848        0.62771
C         -1.27090       -0.59827        0.51837
C         -1.66719       -1.97625        0.25256
C         -2.81963       -2.22281       -0.40364
C         -3.69666       -1.12963       -0.82965
C         -3.48320        0.13367       -0.41943
C         -2.36493        0.45076        0.51369
S         -1.47694        1.98857       -0.00683
C          0.08857        1.41342        0.71003
C          1.37204        1.73876       -0.06304
O          1.69397        2.81055       -0.49634
H          3.56393       -3.13857        0.07262
H          4.97470       -1.27404       -0.74943
H          4.05967        1.05240       -0.86754
H          1.20820       -2.74234        0.77126
H         -0.98702       -2.76508        0.56678
H         -3.13790       -3.23550       -0.64900
H         -4.52220       -1.38924       -1.49098
H         -4.12495        0.96379       -0.71347
H         -2.77074        0.61234        1.54545
H          0.18527        1.78753        1.75573
