14
54191643.log	Energy: -734442.9834158
C         -0.95681        1.47033       -0.27494
C         -0.07795        0.52964        0.18094
N         -0.59419       -0.76619        0.40158
C         -1.89399       -0.80743        0.12550
S         -2.53814        0.76868       -0.44111
N         -2.75078       -1.87082        0.34931
C          1.37651        0.76561        0.45043
O          1.83257        1.87726        0.57150
C          2.20868       -0.47042        0.56097
S          3.12114       -0.90992       -0.64668
H         -0.75502        2.50547       -0.50818
H         -2.31168       -2.75833        0.58301
H         -3.54419       -1.96749       -0.27113
H          2.09842       -1.00541        1.51527
