23
5420520.log	Energy: -686034.6423053
C          4.42509        1.04901        0.00274
C          3.44623       -0.04417       -0.00424
N          3.65699       -1.38024       -0.01427
N          2.46867       -2.06310       -0.01271
C          1.47916       -1.17042       -0.00169
N          2.02518        0.16269        0.00432
C          1.08080        1.25262        0.00434
O          1.41100        2.40788        0.00217
C         -0.27851        0.64986        0.00498
C         -1.43420        1.33129        0.00083
C         -2.71502        0.67691        0.00080
C         -4.03118        1.08733       -0.01637
C         -4.84051       -0.09919       -0.01281
C         -3.98254       -1.17187        0.00689
O         -2.65944       -0.74079        0.01563
S         -0.26288       -1.12313        0.00754
H          4.25118        1.76384       -0.82045
H          5.45627        0.66434       -0.10120
H          4.38294        1.62803        0.94216
H         -1.44956        2.43221       -0.00237
H         -4.40396        2.09573       -0.02906
H         -5.91526       -0.11720       -0.02418
H         -4.07990       -2.23715        0.01797
