16
542756.log	Energy: -805079.9826322
C         -0.21638        2.53422        0.13810
C         -1.34112        1.74282       -0.03884
C         -1.18435        0.33815       -0.23043
C          0.08488       -0.24820       -0.22239
C          1.21523        0.59171       -0.05124
C          1.07164        1.97533        0.14051
N          2.47771        0.02092       -0.10278
S          3.82348       -0.58686       -0.15790
O          4.42057       -1.72779        0.44673
N         -2.31406       -0.45533       -0.45500
S         -3.60722       -0.64982        0.33602
O         -4.65339       -1.50689       -0.13286
H         -0.33304        3.61013        0.28109
H         -2.32540        2.19702       -0.06421
H          0.19750       -1.31876       -0.37233
H          1.93833        2.61256        0.28462
