26
54286369.log	Energy: -324061.4441901
C         -3.37084       -1.24641        0.90082
C         -2.82161       -0.84725       -0.46515
N         -1.45857       -0.25141       -0.35160
C         -0.37907       -1.11137       -0.30821
C          0.91607       -0.65835       -0.14097
C          2.05423       -1.55430       -0.13298
C          3.31227       -1.07715        0.03656
C          3.54187        0.34322        0.21237
C          2.51254        1.22286        0.21267
C          1.13749        0.76787        0.03639
C          0.06808        1.61778        0.03824
C         -1.30335        1.17036       -0.13806
C         -2.36729        1.99704       -0.12148
H         -2.77294       -2.03251        1.37596
H         -4.40097       -1.61286        0.82110
H         -3.38137       -0.39088        1.59305
H         -2.78266       -1.72582       -1.14710
H         -3.49699       -0.10261       -0.95362
H         -0.58866       -2.18115       -0.43238
H          1.86498       -2.61837       -0.26629
H          4.17744       -1.73486        0.04639
H          4.57189        0.67372        0.34297
H          2.67057        2.29194        0.34204
H          0.19819        2.68844        0.18364
H         -2.26117        3.05929        0.00546
H         -3.39067        1.69975       -0.23132
