24
54318476.log	Energy: -393332.8460381
C         -2.49542        1.95350        0.00172
C         -3.29832        0.86796        0.00032
C         -2.74189       -0.49560       -0.00104
O         -3.45403       -1.49005       -0.00122
C         -1.26056       -0.60714       -0.00067
C         -0.68520       -1.85397       -0.00120
C          0.72650       -2.03242        0.00068
C          1.53553       -0.91571        0.00102
C          1.00621        0.44683       -0.00012
C          1.87585        1.51111       -0.00242
C          3.28915        1.30860       -0.00238
C          3.79427        0.03560        0.00065
N          2.93954       -1.06385        0.00172
C         -0.45959        0.60645        0.00037
C         -1.05607        1.83682        0.00207
H         -2.91157        2.96305        0.00273
H         -4.38413        0.93124        0.00001
H         -1.32651       -2.74658       -0.00215
H          1.12357       -3.04067        0.00167
H          1.50130        2.53990       -0.00419
H          3.95048        2.17297       -0.00435
H          4.86878       -0.17766        0.00230
H          3.33231       -2.00462        0.00449
H         -0.48138        2.75743        0.00314
