25
54317713.log	Energy: -666020.7632203
C         -3.22885       -2.25503        0.92589
C         -2.63715       -1.92298       -0.44332
C         -1.34713       -1.16706       -0.29547
C         -0.12417       -1.86175       -0.28387
C          1.05788       -1.13061       -0.14528
C          1.07604        0.29249       -0.01518
C         -0.13650        0.98057       -0.02299
C         -1.33375        0.22649       -0.16456
S         -2.70042        1.31254       -0.14636
C         -1.68669        2.73525        0.04000
C         -0.37556        2.41029        0.09097
C          2.45257        0.77342        0.10626
O          2.91421        1.86890        0.22747
C          3.32995       -0.55117        0.04053
O          4.51150       -0.72732        0.09726
N          2.38373       -1.62299       -0.11158
H         -2.53357       -2.84792        1.53312
H         -4.15595       -2.83160        0.82413
H         -3.46690       -1.34672        1.49541
H         -2.47762       -2.85841       -1.02109
H         -3.37072       -1.34011       -1.04196
H         -0.10454       -2.94346       -0.37779
H         -2.13939        3.71337        0.09999
H          0.45387        3.10330        0.20465
H          2.62997       -2.60039       -0.18942
