17
5460735.log	Energy: -216767.4161955
C         -2.16070       -0.72682        0.00892
C         -2.09117        0.77463       -0.00262
C         -0.93819        1.46733       -0.00565
C          0.32919        0.76515       -0.00290
C          1.62612        1.17718        0.00575
C          2.49017       -0.02041        0.00494
C          1.72527       -1.14505       -0.00508
C          0.30793       -0.73464       -0.00617
C         -0.83544       -1.43168       -0.00229
H         -2.73383       -1.05245        0.90891
H         -2.76173       -1.06840       -0.86558
H         -3.05878        1.27452       -0.00589
H         -0.91121        2.55584       -0.01177
H          2.00980        2.17807        0.01055
H          3.56296        0.04578        0.01102
H          2.04226       -2.16908       -0.01036
H         -0.86852       -2.51848       -0.00630
