25
5463575.log	Energy: -541163.2475957
C         -5.36670        0.01883        0.71731
C         -4.64238       -0.42262       -0.30722
C         -3.71622       -1.56731       -0.20431
N         -2.41980       -1.56752       -0.13531
N         -1.72859       -0.37045       -0.12413
C         -0.34773       -0.40552       -0.06817
C          0.40231        0.81752       -0.04410
C          1.81347        0.77242        0.00644
C          2.47398       -0.44673        0.03359
C          1.74165       -1.66962        0.00990
C          0.37320       -1.64524       -0.03917
N          3.94162       -0.49155        0.08538
O          4.53705        0.57243        0.12423
O          4.47066       -1.59116        0.08621
N         -0.21270        2.13620       -0.07080
O         -1.44477        2.19956       -0.11204
O          0.50816        3.11515       -0.05140
H         -5.32755       -0.40555        1.71355
H         -6.05661        0.85141        0.63679
H         -4.70218        0.02183       -1.30658
H         -4.19162       -2.56783       -0.20058
H         -2.23002        0.55417       -0.12975
H          2.38531        1.71914        0.02448
H          2.29867       -2.61672        0.03167
H         -0.19784       -2.58135       -0.05719
