20
5463468.log	Energy: -287801.0489320
C         -0.41680        1.55270        0.45092
C          0.90116        1.30655       -0.13951
C          3.49800       -0.04150       -0.94341
C          3.95110       -0.62459        0.15974
C          2.50746       -0.66174       -0.06831
C          1.25636       -0.85159        0.20208
C         -0.00919       -1.03239        0.47365
C         -0.90528        0.08340        0.92788
C         -2.07722        0.29693       -0.03185
C         -3.16432       -0.54361       -0.27567
C         -4.07678       -1.30785       -0.47980
C         -1.64204        1.50313       -0.46947
H         -0.49586        2.33013        1.22519
H          1.72122        1.68048        0.46795
H          3.63068        0.49626       -1.83739
H          4.70448       -0.89502        0.83812
H         -0.51792       -1.98232        0.29509
H         -1.15489        0.03035        1.99719
H         -4.85351       -1.96381       -0.64917
H         -1.96889        2.22727       -1.17443
