24
5466521.log	Energy: -513093.2654166
C          0.33667        1.78157       -0.27637
N          1.03627        0.74614       -0.60573
C          2.29088        0.45657       -0.01988
C          2.88372       -0.75465       -0.35021
N          2.39817       -1.62944       -1.29287
C          4.13964       -1.13376        0.26801
N          5.13806       -1.43792        0.76010
C          2.93529        1.36756        0.87100
N          3.43437        2.12613        1.58786
C         -0.95714        2.03400       -0.97195
N         -2.06832        1.38591       -0.97227
C         -2.32582        0.14549       -0.32776
C         -3.55705       -0.02228        0.27169
N         -4.44968        1.02198        0.50938
C         -3.94544       -1.30647        0.80995
N         -4.26152       -2.33183        1.23578
C         -1.42265       -0.95532       -0.45393
N         -0.70497       -1.85408       -0.58245
H          0.58881        2.55848        0.46530
H          2.70952       -2.58976       -1.30195
H          1.45957       -1.47494       -1.66528
H         -0.94852        2.97867       -1.55629
H         -5.41659        0.79028        0.68824
H         -4.31805        1.87268       -0.03191
