32
54672864.log	Energy: -396263.6108918
C         -1.89275        0.04224        1.27172
C         -3.14440       -0.84905        1.28248
N         -3.99434       -0.55952        0.08555
C         -3.25270       -0.77534       -1.19600
C         -2.00696        0.12362       -1.24523
C         -1.09306       -0.15211       -0.03329
C          0.13194        0.73465       -0.04880
C          0.04027        2.07632       -0.06946
O          1.10200        2.94078       -0.07456
C          1.43395        0.03750       -0.02312
C          2.00146       -0.43940       -1.21540
C          3.23458       -1.09529       -1.18695
C          3.90524       -1.28129        0.02641
C          3.33861       -0.81119        1.21538
C          2.10744       -0.15071        1.19399
H         -1.25805       -0.18407        2.14675
H         -2.19986        1.10193        1.37258
H         -2.84601       -1.91734        1.35354
H         -3.75695       -0.62104        2.18267
H         -4.81768       -1.17227        0.10317
H         -3.94324       -0.50264       -2.02444
H         -2.95855       -1.83561       -1.35287
H         -2.32511        1.18461       -1.24951
H         -1.45513       -0.04154       -2.18727
H         -0.75843       -1.22019       -0.08436
H         -0.87139        2.67037       -0.08686
H          1.97683        2.47030       -0.06035
H          1.47602       -0.29803       -2.15832
H          3.67438       -1.46341       -2.11276
H          4.86534       -1.79286        0.04529
H          3.85752       -0.96025        2.16109
H          1.66302        0.21284        2.11886
