28
5469742.log	Energy: -675055.7756668
C         -3.73551       -3.29057       -0.02791
C         -2.49793       -2.42326        0.01327
S         -3.10103       -0.69799        0.01783
C         -1.62923        0.20805        0.00584
N         -0.38855       -0.28202       -0.00467
C          0.48207        0.86199       -0.00920
C          1.82791        0.86351       -0.00542
C          2.63166       -0.32721        0.00021
C          2.41133       -1.68732        0.00237
C          3.70129       -2.32292        0.00073
C          4.63926       -1.32097       -0.00092
O          4.02886       -0.06996       -0.00169
C         -0.45588        2.06521       -0.00778
N         -1.73403        1.64401       -0.00215
N         -0.04780        3.38502        0.10158
N         -0.98011        4.44849       -0.07162
H         -4.38638       -3.13783        0.84506
H         -3.46103       -4.35596       -0.03479
H         -4.34333       -3.11528       -0.92718
H         -1.88226       -2.61159        0.91460
H         -1.83781       -2.59320       -0.86015
H          2.39195        1.80500       -0.00020
H          1.45325       -2.18198        0.00523
H          3.86956       -3.38295        0.00043
H          5.70582       -1.26909        0.00019
H          0.86323        3.63786       -0.30359
H         -1.73245        4.19750       -0.73323
H         -1.45141        4.60744        0.83266
