19
54737562.log	Energy: -497181.1077425
C         -0.03139       -2.04049        0.01147
C          1.31473       -2.07627        0.01129
C          2.28698       -0.98080       -0.00272
O          3.49344       -1.19775       -0.01190
C          1.90371        0.45180       -0.00227
C          0.68727        1.08767        0.00443
C         -0.59393        0.44961        0.00232
C         -0.87464       -0.88309        0.00354
C         -2.38196       -1.05551       -0.00362
O         -3.07883       -2.02009       -0.00976
O         -2.93851        0.24095       -0.00211
C         -1.89585        1.23049       -0.00093
O         -2.20198        2.37369       -0.00264
O          0.61272        2.45310        0.00927
O          2.97479        1.31409       -0.00494
H         -0.58291       -3.00125        0.01992
H          1.81794       -3.06135        0.01994
H          1.53325        2.87090        0.00737
H          3.84909        0.77935       -0.01173
