21
5483097.log	Energy: -366003.0320395
C          3.91879       -0.41519        0.52103
N          2.84409       -0.78239       -0.44302
C          1.57906       -0.13986       -0.20436
C          0.40238       -0.86266       -0.11498
C         -0.85572       -0.20602       -0.02325
C         -0.91233        1.21197        0.00182
C          0.32168        1.94297       -0.08815
C          1.52260        1.29017       -0.19471
N         -2.08987        1.90952        0.13079
N         -2.03796       -1.04391        0.03845
O         -1.90063       -2.25714        0.01553
O         -3.14138       -0.49646        0.11043
H          4.15029        0.65944        0.43899
H          4.83645       -0.96285        0.24687
H          3.68136       -0.63599        1.57306
H          2.74525       -1.80418       -0.48201
H          0.40340       -1.95894       -0.12273
H          0.28903        3.03142       -0.07662
H          2.45445        1.85447       -0.28395
H         -2.98839        1.42260        0.15108
H         -2.10842        2.91201        0.07976
