22
5483985.log	Energy: -506105.4438208
C          3.30935       -2.40492        0.26789
N          1.94554       -2.52874       -0.30726
C          1.05858       -1.43012       -0.09905
C          1.53759       -0.09786       -0.08638
C          0.65456        0.97876       -0.03047
C         -0.75272        0.76237        0.00237
C         -1.22773       -0.57519       -0.00883
C         -0.32429       -1.65436       -0.05759
N         -2.65655       -0.86083        0.03009
O         -3.41707        0.11450        0.06908
O         -3.03316       -2.01349        0.02673
O         -1.52996        1.84316        0.05159
N          1.20901        2.35040       -0.01253
O          2.42635        2.43955        0.05177
O          0.43653        3.28286       -0.06066
H          3.87450       -1.61850       -0.26458
H          3.85363       -3.35091        0.09902
H          3.33157       -2.18031        1.34626
H          1.52413       -3.43116       -0.06302
H          2.61898        0.10691       -0.12594
H         -0.73186       -2.67423       -0.07086
H         -2.55047        1.61760        0.07134
