25
5484089.log	Energy: -437469.0696384
C         -0.05899        2.07833       -0.05875
C          1.30322        2.18290        0.04421
C          2.13611        1.01059        0.06932
C          1.50447       -0.25646       -0.00901
C          0.08890       -0.34466       -0.11206
C         -0.69437        0.79566       -0.14234
N         -2.12915        0.76930       -0.12182
C         -2.78362       -0.48369       -0.60033
C         -4.29733       -0.38087       -0.35483
O         -4.61244       -0.57703        1.02611
N          2.24221       -1.50777        0.01504
O          3.46949       -1.46037        0.13034
O          1.62371       -2.55600       -0.08141
N          3.50046        1.16494        0.14266
H         -0.67733        2.97924       -0.06782
H          1.77492        3.16287        0.10966
H         -0.35452       -1.34677       -0.15786
H         -2.53263        1.59019       -0.58758
H         -2.57492       -0.70329       -1.66935
H         -2.38561       -1.34563       -0.00993
H         -4.71728        0.58856       -0.68022
H         -4.84393       -1.20523       -0.85406
H         -4.05234        0.00747        1.58649
H          4.11738        0.35207        0.20227
H          3.91515        2.07161        0.25967
