26
5486209.log	Energy: -391696.5440604
C          2.41254        2.59055        0.00629
C          1.94342        1.17464        0.00594
C          0.57671        0.82747       -0.00218
C          0.18383       -0.55576       -0.00111
C          1.15582       -1.54970        0.00780
C          2.50256       -1.12459        0.01175
N          2.88894        0.20327        0.03354
N          3.55719       -2.05644       -0.08624
C         -1.26779       -0.57626       -0.00458
C         -2.21331       -1.60531       -0.00662
C         -3.56485       -1.27224        0.00508
C         -3.98338        0.07558        0.01576
C         -3.07217        1.12526        0.01174
C         -1.70710        0.79320       -0.00318
N         -0.58822        1.64831       -0.08490
H          3.40320        2.68235       -0.47283
H          2.52995        2.96456        1.03447
H          1.72849        3.25725       -0.53226
H          0.88915       -2.59897       -0.01594
H          3.40491       -2.95388        0.34808
H          4.48899       -1.68930        0.07316
H         -1.88933       -2.64453       -0.01749
H         -4.31666       -2.05807        0.00563
H         -5.05216        0.29326        0.02759
H         -3.39880        2.15916        0.01270
H         -0.59078        2.60510        0.21999
