21
5487944.log	Energy: -366013.5448236
C          3.33247        0.87869       -0.01783
C          1.88617        0.52009        0.00034
C          0.91915        1.50150        0.00398
C         -0.47816        1.18257        0.00454
C         -0.85907       -0.18574        0.00759
C          0.14727       -1.19177        0.01559
C          1.48892       -0.86769        0.01660
N          2.49986       -1.88286       -0.09350
N         -2.23663       -0.62438       -0.00314
O         -3.12552        0.23272       -0.01517
O         -2.47405       -1.82285        0.00287
N         -1.39432        2.20568        0.01564
H          3.86941        0.31809       -0.80381
H          3.81904        0.64068        0.93944
H          3.50872        1.94528       -0.21207
H          1.21158        2.55041       -0.00268
H         -0.18416       -2.23762        0.01236
H          2.12445       -2.82292       -0.00848
H          3.24771       -1.76683        0.58265
H         -2.39849        2.01302       -0.00464
H         -1.10442        3.16595       -0.02228
