27
5488467.log	Energy: -414999.7410457
C         -2.97173       -1.06400        1.26335
C         -2.41775       -0.87738       -0.15414
C         -3.44539       -0.20253       -1.07007
C         -1.11290       -0.10029       -0.08867
C          0.15225       -0.80933       -0.06023
C          1.34847       -0.05060       -0.01940
C          1.30177        1.36953        0.04937
C          0.08797        2.02822        0.05589
C         -1.12458        1.27139       -0.01573
N          0.00333        3.44265        0.24743
N          2.67098       -0.65192       -0.04435
O          2.75997       -1.88215       -0.09453
O          3.65009        0.07793       -0.02749
N          0.16646       -2.18673       -0.03439
H         -3.20040       -0.10202        1.73829
H         -2.25117       -1.57454        1.91334
H         -3.89494       -1.65297        1.25920
H         -2.22167       -1.89509       -0.58891
H         -3.81340        0.74269       -0.65504
H         -3.02156        0.01198       -2.05794
H         -4.32049       -0.84601       -1.21890
H          2.25048        1.91374        0.10498
H         -2.07521        1.81126        0.00109
H          0.86842        3.93628        0.05828
H         -0.75999        3.88097       -0.25344
H          1.04866       -2.70085       -0.08927
H         -0.68325       -2.70982       -0.17854
