25
5488103.log	Energy: -437475.4810564
C         -0.58448        1.85223       -0.22006
C          0.79681        2.09663        0.05932
C          1.67336        1.03069        0.12802
C          1.20765       -0.30039       -0.05679
C         -0.15847       -0.55858       -0.33365
C         -1.05938        0.57816       -0.41704
C         -2.50654        0.36924       -0.76375
C         -3.37230       -0.01556        0.44164
O         -3.03689       -1.33410        0.90486
N         -0.64106       -1.82680       -0.55451
N          2.20210       -1.35437        0.06305
O          3.36124       -1.04541        0.29284
O          1.83561       -2.52613       -0.05703
N          1.25472        3.44848        0.13404
H         -1.25822        2.70892       -0.29547
H          2.74224        1.17872        0.31819
H         -2.92602        1.28805       -1.22857
H         -2.60821       -0.40374       -1.55797
H         -3.28037        0.70724        1.26910
H         -4.43716       -0.11814        0.15190
H         -2.31757       -1.28841        1.56948
H         -0.02585       -2.63800       -0.46095
H         -1.64305       -2.00601       -0.54179
H          2.17816        3.55033        0.53999
H          0.60611        4.08051        0.58657
