20
55255389.log	Energy: -357726.3610068
C         -3.16361       -0.34177        0.01623
C         -2.49657        0.00096        1.19666
C         -1.11428        0.20573        1.19016
C         -0.39556        0.06365       -0.00724
C         -1.06240       -0.28556       -1.19170
C         -2.44454       -0.48740       -1.17512
C          1.06090        0.30318       -0.02191
C          1.59379        1.54779       -0.11809
O          0.87708        2.68674       -0.20739
C          1.97627       -0.83676        0.07201
O          3.19210       -0.82282        0.07613
O          1.32060       -2.04115        0.16583
H         -4.24025       -0.50220        0.02528
H         -3.05482        0.10337        2.12652
H         -0.59257        0.45526        2.11261
H         -0.49892       -0.41324       -2.11481
H         -2.96294       -0.76418       -2.09248
H          2.66269        1.79245       -0.13691
H         -0.11533        2.53099       -0.19601
H          1.95997       -2.80362        0.23325
