34
555794.log	Energy: -487724.4745955
C          6.23958       -0.50068       -0.96635
C          5.19283        0.15735       -0.07005
C          3.84140        0.29160       -0.78476
C          2.77854        0.98512        0.07673
C          2.33160        0.15762        1.29155
C          1.67070       -1.12751        0.88394
N          0.44560       -1.35472        0.51945
N         -0.47451       -0.32930        0.46656
C         -1.78581       -0.63342        0.10812
C         -2.22920       -1.98747       -0.02043
C         -3.54174       -2.27067       -0.31867
C         -4.48643       -1.23015       -0.50830
C         -4.08392        0.08020       -0.40529
C         -2.73190        0.41324       -0.10146
N         -2.40367        1.82136       -0.03225
O         -1.24709        2.14378        0.26598
O         -3.27413        2.64224       -0.27040
H          5.96505       -1.53091       -1.21995
H          7.21779       -0.53454       -0.47309
H          6.36796        0.04514       -1.90820
H          5.07396       -0.43127        0.86015
H          5.55043        1.15669        0.24770
H          3.97593        0.86862       -1.72189
H          3.48123       -0.70603       -1.10181
H          3.16351        1.96283        0.43192
H          1.90213        1.22822       -0.55757
H          3.21001       -0.06359        1.93495
H          1.65913        0.76758        1.93119
H          2.32034       -2.02055        0.88277
H         -0.17799        0.67309        0.52178
H         -1.50065       -2.78968        0.12670
H         -3.87093       -3.30823       -0.41281
H         -5.51953       -1.48151       -0.73885
H         -4.79439        0.90323       -0.55409
