20
5582975.log	Energy: -637964.6845903
C          3.54263       -2.11794       -0.04306
O          2.17612       -1.57924       -0.03316
N          2.25022       -0.20939       -0.05438
C          1.10552        0.41298       -0.04762
C         -0.25728       -0.13363       -0.01102
C         -0.60098       -1.45624        0.06503
S         -2.32938       -1.62602        0.06963
C         -2.50225        0.15747       -0.01928
N         -1.33243        0.78886       -0.04381
N         -3.74866        0.73196       -0.17031
C          1.21106        1.91841       -0.10996
O          1.26639        2.63573       -1.07317
O          1.25583        2.42028        1.16538
H          3.34592       -3.18330       -0.20548
H          4.01552       -1.93034        0.92487
H          4.12926       -1.68672       -0.85946
H          0.05681       -2.31024        0.11527
H         -4.53436        0.28188        0.27839
H         -3.78659        1.74776       -0.14343
H          1.28079        3.41671        1.17833
