28
564212.log	Energy: -426189.6199972
C         -4.53677        0.72404       -0.05217
C         -3.55587        1.72472       -0.13498
C         -2.21036        1.37472       -0.12606
C         -1.81503        0.02527       -0.03691
C         -2.81438       -0.98999        0.06810
C         -4.18093       -0.61412        0.04447
N         -2.47798       -2.33348        0.28376
N         -0.45789       -0.43397       -0.10178
N          0.45536        0.41586        0.06457
C          1.81436       -0.03209       -0.01135
C          2.21803       -1.37629       -0.14133
C          3.56499       -1.71840       -0.15736
C          4.54101       -0.71579       -0.04223
C          4.17823        0.61829        0.08036
C          2.80923        0.98906        0.08319
N          2.47171        2.34835        0.09431
H         -5.59119        1.00257       -0.06508
H         -3.84956        2.76822       -0.20840
H         -1.44174        2.14744       -0.19936
H         -4.95005       -1.37869        0.11900
H         -1.52156       -2.60989        0.09886
H         -3.15825       -3.03188        0.03030
H          1.45437       -2.15289       -0.22232
H          3.86472       -2.75825       -0.25632
H          5.59700       -0.98899       -0.05138
H          4.94335        1.38627        0.15754
H          3.13457        2.99383        0.49201
H          1.50504        2.58845        0.27680
