26
566157.log	Energy: -676685.4868716
C         -2.28728        2.15305       -0.91817
C         -1.04364        2.25716       -0.30202
C         -0.53906        1.18763        0.48167
C         -1.30609        0.01035        0.60939
C         -2.54622       -0.06105       -0.02772
C         -3.05715        0.99056       -0.79241
N         -3.34637       -1.30984        0.11905
O         -2.92641       -2.15856        0.89099
O         -4.36845       -1.40871       -0.53970
N          0.66080        1.38676        1.21056
C          1.46980        0.20502        1.61696
C          2.53624       -0.12699        0.63755
C          3.89037       -0.11398        0.79601
C          4.60958       -0.50221       -0.39830
C          3.79278       -0.79868       -1.44660
S          2.12591       -0.61586       -0.98633
H         -2.66634        2.98670       -1.51326
H         -0.46271        3.17215       -0.41571
H         -0.94670       -0.83342        1.20818
H         -4.02995        0.90102       -1.28182
H          1.24511        2.15337        0.86099
H          1.91209        0.45477        2.61655
H          0.81166       -0.68202        1.79954
H          4.40638        0.15069        1.70955
H          5.69087       -0.54275       -0.41830
H          4.06695       -1.11197       -2.44017
