30
5670717.log	Energy: -481454.2498766
C         -4.54695       -1.98851       -0.58102
N         -4.42001       -0.58839       -0.09103
C         -5.26977       -0.34432        1.10620
C         -3.11558       -0.02599       -0.08320
C         -2.13645       -0.47647       -1.00366
C         -0.90532        0.16196       -1.09322
C         -0.60365        1.25826       -0.26862
C         -1.57305        1.71633        0.63824
C         -2.80591        1.08233        0.74354
C          0.69335        1.95123       -0.36671
N          1.89707        1.46818       -0.30006
N          2.09441        0.09933       -0.19404
C          3.42704       -0.26955        0.08512
N          3.77870       -1.39286        0.81226
N          5.13613       -1.44116        0.67944
N          5.61359       -0.40111       -0.06500
N          4.61711        0.32890       -0.44955
H         -5.61405       -2.22806       -0.72483
H         -4.10765       -2.73468        0.09951
H         -4.06256       -2.08743       -1.56935
H         -4.87810       -0.80133        2.02864
H         -5.37682        0.74317        1.26849
H         -6.28335       -0.73931        0.92412
H         -2.35017       -1.31517       -1.66435
H         -0.16853       -0.18634       -1.82114
H         -1.35492        2.57507        1.27517
H         -3.53534        1.46003        1.45636
H          0.64109        3.04594       -0.51542
H          1.39410       -0.45989        0.33105
H          5.69514       -2.17386        1.10754
