25
57009922.log	Energy: -414650.9397373
C         -3.23748       -1.71791       -0.00948
C         -1.87864       -1.65701       -0.01232
C         -1.23321       -0.37851        0.00013
C          0.07504        0.05859       -0.00053
C          0.02380        1.55057        0.00068
C          1.14837        2.33331       -0.00729
C          2.45128        1.73235       -0.00549
C          2.53686        0.36938       -0.01976
C          1.36494       -0.53841       -0.01105
C          1.84317       -1.82546        0.00490
N          3.26437       -1.81463        0.12806
N          3.70742       -0.45882       -0.10964
N         -1.33225        1.97937        0.00822
C         -2.06686        0.85741        0.00793
C         -3.50699        0.72550        0.01140
C         -4.05355       -0.51659        0.00330
H         -3.76093       -2.67144       -0.01845
H         -1.26180       -2.55157       -0.02139
H          1.07008        3.42342       -0.01215
H          3.32721        2.37242       -0.00569
H          1.30195       -2.76196        0.00356
H          3.79218       -2.48440       -0.44894
H          4.48987       -0.21221        0.51490
H         -4.10072        1.63800        0.02110
H         -5.13493       -0.65295        0.00619
