18
57001309.log	Energy: -356834.1114148
C          1.14203       -1.29892       -0.08966
C         -0.16261       -0.66828        0.10440
C         -1.49576       -1.16973        0.26598
C         -2.55038       -0.86939       -0.70777
C         -2.70084        0.51745       -0.69111
C         -1.71094        0.97516        0.28761
C         -0.31023        0.79888        0.10822
C          0.82735        1.69284       -0.13048
O          2.11955        1.03098       -0.06641
C          2.30843       -0.33653       -0.07899
O          3.46524       -0.67479       -0.07663
O         -1.82076       -0.11485        1.27059
H          1.16975       -1.89430       -1.03842
H          1.32028       -2.07842        0.70067
H         -3.06179       -1.58571       -1.32158
H         -3.35171        1.13141       -1.27983
H          0.92313        2.48467        0.64783
H          0.80583        2.16272       -1.13836
