24
57045158.log	Energy: -424721.6340687
C         -3.49463       -1.18520       -0.00301
C         -3.86838        0.15464       -0.00658
C         -2.89106        1.15545       -0.00341
C         -1.51664        0.83913        0.00351
C         -1.13755       -0.53577        0.00286
C         -2.13594       -1.51838       -0.00024
C          0.25179       -0.97430        0.00192
C          1.30978       -0.09305       -0.01217
C          1.63342        1.30899       -0.00498
C          0.67641        2.27240        0.00375
N         -0.69386        2.03470        0.01260
N          3.07344        1.40329       -0.00191
C          3.57712        0.18242       -0.00280
N          2.52617       -0.82753       -0.01080
C          2.13488       -2.18993        0.00614
N          0.78485       -2.28277        0.01119
H         -4.24670       -1.97191       -0.00363
H         -4.92126        0.43515       -0.01146
H         -3.21848        2.19521       -0.00616
H         -1.83358       -2.57209        0.00011
H          0.95757        3.33961        0.00900
H         -1.25896        2.89293        0.01410
H          4.62152       -0.09890        0.00054
H          2.83042       -3.01227        0.00990
