28
57047390.log	Energy: -475370.0495152
C         -3.68446        1.21895        0.49408
C         -4.75286        0.36185       -0.13843
N         -4.57702       -0.86760       -0.51046
C         -3.29579       -1.45211       -0.32382
C         -2.17848       -0.74213        0.00827
C         -2.28481        0.71216        0.19481
C         -1.32921        1.65395        0.11118
O          0.03443        1.60359       -0.12416
C          0.76293        0.46543       -0.02758
C          2.13593        0.47301       -0.07315
C          3.14789        1.47983       -0.23322
C          4.45359        1.11272       -0.21366
C          4.85363       -0.27713       -0.03860
C          3.95341       -1.27746        0.11667
C          2.53991       -0.95714        0.10835
N          1.49852       -1.77181        0.25144
C          0.31171       -0.94653        0.14866
C         -0.92503       -1.46856        0.16484
H         -3.83782        1.22129        1.60032
H         -3.81091        2.27486        0.17633
H         -5.74100        0.82242       -0.26769
H         -3.29445       -2.53450       -0.49541
H         -1.51007        2.73181        0.20122
H          2.82731        2.51211       -0.36663
H          5.25014        1.84459       -0.33140
H          5.92551       -0.48273       -0.03829
H          4.23411       -2.32173        0.24732
H         -1.01897       -2.56199        0.29032
