28
5706197.log	Energy: -496157.1402791
C         -5.22674        0.48608        0.00278
C         -5.00736       -0.89628        0.01303
C         -3.71031       -1.40573        0.00825
C         -2.61341       -0.51354       -0.00339
C         -2.82691        0.87150       -0.01042
C         -4.13714        1.35930       -0.00785
N         -1.32061       -1.13738       -0.00897
C         -0.06712       -0.55415       -0.00398
N          0.99141       -1.43373       -0.00282
C          2.24831       -0.87926       -0.00201
C          3.40666       -1.72437       -0.00225
C          4.65735       -1.16510        0.00057
C          4.83690        0.25313        0.00380
C          3.75223        1.08948        0.00299
C          2.43401        0.53974        0.00047
N          1.28496        1.37865        0.00220
N          0.06607        0.84801       -0.00119
O          1.39121        2.59460        0.00687
H         -6.24194        0.87691        0.00349
H         -5.85502       -1.58145        0.02305
H         -3.55575       -2.48250        0.01445
H         -1.99400        1.58280       -0.01766
H         -4.30247        2.43750       -0.01419
H         -1.31602       -2.17025       -0.00839
H          3.25037       -2.80477       -0.00523
H          5.54687       -1.79953        0.00142
H          5.85021        0.65182        0.00716
H          3.85643        2.17902        0.00456
