20
57086039.log	Energy: -637879.0492328
C          4.30874       -1.28090       -0.44097
O          3.37359       -0.23062       -0.02288
N          2.08722       -0.70948       -0.14655
C          1.17291        0.16537        0.17283
C          1.47957        1.57925        0.63985
O          1.17467        2.55677        0.00280
C         -0.22587       -0.28962        0.10343
C         -0.66046       -1.53685        0.38928
S         -2.39169       -1.70681        0.19197
C         -2.59453        0.03098       -0.22687
N         -3.74612        0.52621       -0.40291
N         -1.25256        0.58671       -0.43337
O         -1.20236        1.89524        0.08889
H          5.26821       -0.77193       -0.29039
H          4.14522       -1.53574       -1.49226
H          4.20725       -2.15991        0.20113
H          2.02586        1.62227        1.59508
H         -0.06207       -2.38665        0.68959
H         -3.88131        1.50698       -0.63201
H         -0.70531        2.42933       -0.63861
