28
57123981.log	Energy: -477812.0310801
C          3.50400       -1.99127       -0.54970
C          2.15473       -2.40428       -0.74783
C          1.11834       -1.54150       -0.49328
C          1.36960       -0.21285       -0.02387
C          2.71651        0.20305        0.15187
C          3.77820       -0.72032       -0.11415
C          2.99780        1.53820        0.58232
C          1.97635        2.42264        0.81659
C          0.62374        2.01661        0.64825
C          0.31802        0.72913        0.25820
C         -1.09902        0.33237        0.14406
C         -1.64566       -0.64413        0.88238
C         -3.06975       -1.06187        0.73838
O         -3.60343       -1.82550        1.50922
C         -3.80057       -0.49030       -0.44065
C         -3.27664        0.49285       -1.17200
C         -1.95535        1.11323       -0.83231
O         -1.62679        2.18174       -1.28848
H          4.30545       -2.69965       -0.75386
H          1.96383       -3.41524       -1.10599
H          0.08958       -1.86002       -0.65597
H          4.80545       -0.38965        0.03499
H          4.03746        1.83738        0.71328
H          2.17904        3.44580        1.13159
H         -0.16851        2.74639        0.82640
H         -1.07536       -1.19895        1.63522
H         -4.77753       -0.93650       -0.64256
H         -3.77938        0.93112       -2.03845
