31
5712810.log	Energy: -497096.2020618
C          2.09773        2.77291        0.90174
C          2.19266        1.41736        0.32935
C          1.22061        0.63848       -0.26657
C          1.84689       -0.61438       -0.72740
O          1.43979       -1.60036       -1.28736
N          3.28903       -0.44321       -0.44639
N          3.41126        0.69151        0.42376
C          4.06465       -1.62554       -0.00129
C         -0.16971        0.98960       -0.45052
C         -1.25315        0.27235       -0.12585
C         -1.47319       -1.04129        0.53721
N         -2.76894       -1.32108        0.62350
N         -3.48849       -0.30731       -0.00225
C         -2.65159        0.77401       -0.41185
O         -3.03060        1.81097       -0.90622
C         -4.94633       -0.24332        0.19590
C         -0.42252       -1.93715        1.05895
H          1.06119        3.15464        0.88406
H          2.71157        3.50333        0.34975
H          2.42125        2.80410        1.95652
H          4.30420        1.18240        0.31635
H          3.92630       -1.88049        1.06151
H          3.74056       -2.49215       -0.61456
H          5.13783       -1.45765       -0.19128
H         -0.32492        1.98313       -0.91233
H         -5.41736       -1.17050       -0.17776
H         -5.21276       -0.12533        1.26025
H         -5.34641        0.61583       -0.37419
H          0.06587       -2.47864        0.22366
H          0.35504       -1.38078        1.59882
H         -0.83219       -2.70044        1.73965
