27
5714252.log	Energy: -417847.6311669
C         -0.25191       -0.89184        0.01720
C         -1.75872       -0.79972        0.04046
C         -2.68635       -1.82953        0.10704
C         -4.05160       -1.49314        0.10925
C         -4.47086       -0.16199        0.04802
C         -3.53102        0.88029       -0.01717
C         -2.18301        0.55045       -0.01948
C         -0.99372        1.44589       -0.07830
O         -0.98143        2.65156       -0.13601
C          0.21735        0.54243       -0.04639
C          1.46457        1.03343       -0.04667
C          2.71499        0.31003       -0.00912
C          3.98633        0.81447        0.31794
C          4.91789       -0.25085        0.22139
C          4.21953       -1.39703       -0.17106
N          2.87284       -1.05836       -0.29968
H          0.09281       -1.47702       -0.85678
H          0.13185       -1.39711        0.92733
H         -2.37592       -2.86925        0.15605
H         -4.79454       -2.29035        0.15964
H         -5.53390        0.07294        0.05086
H         -3.84704        1.92334       -0.06463
H          1.59239        2.13229       -0.06431
H          4.21112        1.82515        0.59624
H          5.97013       -0.18427        0.41523
H          4.58863       -2.38875       -0.35485
H          2.14519       -1.66830       -0.61765
