27
57165299.log	Energy: -430763.8937303
C         -4.09302        0.23640        0.00199
C         -3.74435       -1.11392        0.02533
C         -2.40049       -1.49925        0.02644
C         -1.35446       -0.55512        0.00457
C         -1.73494        0.81383       -0.01287
C         -3.08249        1.20015       -0.01598
C         -0.71269        1.80705       -0.01864
C         -0.05791        2.97178       -0.00682
C          0.73996        1.75978       -0.00614
C          1.70447        0.84503        0.00692
C          3.11734        1.21922        0.02903
C          4.09353        0.28966        0.02070
C          3.74056       -1.12075       -0.00903
C          2.45120       -1.51701       -0.02158
C          1.31461       -0.58153       -0.00585
C          0.03991       -1.08770       -0.00454
O         -0.11709       -2.47727       -0.01683
H         -5.13898        0.53821       -0.00111
H         -4.52136       -1.87847        0.04139
H         -2.16387       -2.57049        0.04283
H         -3.33626        2.26026       -0.03149
H         -0.03430        4.02027       -0.00355
H          3.33283        2.28763        0.05068
H          5.14849        0.54931        0.03562
H          4.55828       -1.84018       -0.02032
H          2.21385       -2.58715       -0.04400
H          0.75060       -2.96688       -0.01657
