28
57166338.log	Energy: -405363.5758520
C          2.49854        3.04715        0.21644
C          1.67302        1.82817        0.12576
C          2.04556        0.52410        0.04309
C          0.80788       -0.35658       -0.02494
C          1.19289       -1.63745       -0.13770
C          2.69232       -1.67539       -0.15618
C          3.48050       -2.74008       -0.31127
N          3.17881       -0.32016        0.08163
C         -0.32827        0.57389        0.03704
C          0.18776        1.84094        0.11937
C         -1.72521        0.17128        0.01691
C         -2.13525       -1.04736        0.60914
N         -3.42315       -1.46606        0.61603
C         -4.35962       -0.67475        0.02976
C         -4.04129        0.55037       -0.57752
C         -2.71068        0.97381       -0.58321
H          2.22101        3.65268        1.09315
H          2.37350        3.68389       -0.67226
H          3.56866        2.81803        0.31141
H          0.60487       -2.53581       -0.20550
H          4.55840       -2.69953       -0.31099
H          3.09432       -3.74042       -0.43407
H          4.04073       -0.02383       -0.35904
H         -0.36576        2.76145        0.18694
H         -1.41040       -1.70623        1.10240
H         -5.38931       -1.04804        0.05736
H         -4.81822        1.15634       -1.03722
H         -2.43621        1.91636       -1.05598
