16
57181998.log	Energy: -973780.2897045
C          0.83862        2.25547        0.25294
C          2.05685        1.80244       -0.07430
S          1.97080        0.09625       -0.64646
C          0.34898       -0.01839       -0.37802
C         -0.20674        1.21327        0.10683
N         -1.51296        1.27895        0.33965
C         -2.15554        0.07450        0.07328
S         -3.71159       -0.27869        0.24796
S         -0.92908       -1.14681       -0.54447
C          2.76813       -0.77696        0.77417
O          2.49817       -2.13526        0.54335
H          0.57092        3.25364        0.59410
H          2.99645        2.32854       -0.07677
H          3.86947       -0.68362        0.70654
H          2.40324       -0.42882        1.75499
H          1.58149       -2.37420        0.85495
