18
57228351.log	Energy: -546442.3449468
C         -3.35607       -0.12663        0.41635
C         -2.91963        0.52587       -0.73658
N         -1.59237        0.15097       -0.97149
C         -1.17941       -0.70024        0.06713
C         -2.26792       -0.89249        0.92314
C          0.16589       -1.33221        0.12654
C          1.33787       -0.42980       -0.02932
S          2.81646       -0.89589       -0.37373
C          1.12922        1.04469        0.13870
O          0.72408        1.83813       -0.67887
O          1.50187        1.43165        1.39279
H         -4.33419       -0.06875        0.84960
H         -3.44947        1.19778       -1.38571
H         -0.98133        0.56791       -1.65619
H         -2.29068       -1.50350        1.80187
H          0.26247       -1.86506        1.11209
H          0.21521       -2.16019       -0.62788
H          1.39394        2.41578        1.53919
