27
57239119.log	Energy: -508663.6605598
C          4.55611        0.68515        0.07270
C          4.46778       -0.66209       -0.03092
C          3.18113       -1.35593       -0.09287
O          3.05249       -2.56549       -0.17490
C          1.96559       -0.47635       -0.04487
C          0.72321       -1.02409       -0.09966
N         -0.41908       -0.19011       -0.04130
C         -1.71571       -0.74090       -0.08075
C         -2.80915        0.07081       -0.02667
C         -2.65720        1.50930        0.02940
C         -1.42478        2.06357        0.07179
C         -0.21339        1.25129        0.04876
N          0.98382        1.78112        0.10307
C          2.14926        0.97672        0.06378
C          3.39182        1.53474        0.12327
C         -4.20408       -0.46822       -0.08817
O         -5.04742       -0.08422       -0.87543
N         -4.49965       -1.47469        0.83127
H          5.53130        1.17886        0.11950
H          5.34672       -1.30458       -0.07275
H          0.56825       -2.11119       -0.18585
H         -1.78546       -1.83356       -0.16207
H         -3.56739        2.11870        0.02366
H         -1.26398        3.14702        0.11551
H          3.52340        2.61230        0.20446
H         -3.87760       -1.75205        1.56798
H         -5.43494       -1.85608        0.86614
