28
57241.log	Energy: -472981.1412328
C         -4.01892       -0.87949        1.10022
C         -2.62071       -1.44827        0.83040
C         -1.70764       -0.38613        0.28197
C         -2.26616        0.72956       -0.41599
C         -1.41488        1.76864       -0.86836
C         -0.04380        1.67181       -0.68296
C          0.51938        0.54752       -0.04782
C         -0.33155       -0.46837        0.43983
C          1.97290        0.46264        0.11330
C          2.73186       -0.64080       -0.13816
C          4.15206       -0.65946        0.06196
N          5.29693       -0.67907        0.21775
C          2.18759       -1.86417       -0.64794
N          1.76615       -2.85510       -1.06804
C          2.61352        1.67684        0.56432
N          3.10392        2.65653        0.93018
N         -3.62615        0.79333       -0.72485
C         -4.56995       -0.20955       -0.16391
H         -3.97607       -0.15262        1.93596
H         -4.70339       -1.68412        1.43061
H         -2.20403       -1.88280        1.76144
H         -2.68060       -2.28864        0.10472
H         -1.83226        2.63458       -1.37746
H          0.60335        2.47386       -1.04616
H          0.10136       -1.32263        0.96556
H         -4.02309        1.71148       -0.90624
H         -4.74486       -0.97777       -0.95637
H         -5.54865        0.27424        0.04142
