29
57296752.log	Energy: -395331.5482004
C          2.50432        3.04215        0.24802
C          1.68103        1.82273        0.14527
C          2.05477        0.52098        0.04812
C          0.81746       -0.35974       -0.02892
C          1.20312       -1.63914       -0.15381
C          2.70210       -1.67644       -0.17379
C          3.49077       -2.73896       -0.34143
N          3.18964       -0.32402        0.07894
C         -0.32042        0.56843        0.04247
C          0.19391        1.83400        0.13808
C         -1.72226        0.16308        0.02019
C         -2.12703       -1.02401        0.65746
C         -3.47003       -1.40433        0.64313
C         -4.42061       -0.60893       -0.00577
C         -4.02293        0.57074       -0.64168
C         -2.68127        0.95882       -0.63117
H          2.37393        3.68971       -0.63202
H          3.57521        2.81437        0.33627
H          2.22782        3.63588        1.13313
H          0.61347       -2.53522       -0.22856
H          4.56820       -2.69865       -0.34076
H          3.10428       -3.73722       -0.47663
H          4.04707       -0.02367       -0.36816
H         -0.36146        2.75272        0.21325
H         -1.39100       -1.64043        1.17114
H         -3.77919       -2.32222        1.14074
H         -5.46666       -0.90763       -0.01481
H         -4.76107        1.19009       -1.14893
H         -2.37559        1.87420       -1.13422
