28
57300822.log	Energy: -405365.5775633
C          2.40217        3.09651        0.10547
C          1.61992        1.84717        0.05789
C          2.03547        0.55340        0.03232
C          0.82683       -0.37516       -0.00228
C          1.26362       -1.64347       -0.05989
C          2.76238       -1.62709       -0.07340
C          3.59218       -2.66490       -0.18736
N          3.19558       -0.24563        0.10814
C         -0.33640        0.51789        0.01824
C          0.13768        1.80710        0.04369
C         -1.73274        0.09802        0.00963
C         -2.11881       -1.23444        0.27431
C         -3.47456       -1.56430        0.25673
C         -4.42255       -0.57602       -0.02128
C         -3.97029        0.72994       -0.27226
N         -2.65922        1.07226       -0.25972
H          2.26337        3.69223       -0.80952
H          3.47843        2.91008        0.21930
H          2.09293        3.72791        0.95313
H          0.71425       -2.56684       -0.09080
H          4.66736       -2.58194       -0.18952
H          3.24490       -3.68315       -0.27166
H          4.05817        0.06515       -0.31954
H         -0.46536        2.70364        0.05531
H         -1.36967       -1.98884        0.49803
H         -3.79178       -2.58663        0.46136
H         -5.48315       -0.80783       -0.04221
H         -4.67327        1.54187       -0.49369
