23
57346323.log	Energy: -405729.5355935
C          1.58459        1.04210       -0.31846
C          2.69222        0.06420        0.11888
O          3.86131        0.32439        0.03700
C          1.99893       -1.14182        0.61734
C          1.35606       -1.91191       -0.28327
C         -0.08763       -1.87943       -0.11957
C         -1.16016       -2.69731       -0.03536
C         -2.38150       -1.86347        0.05092
C         -2.03456       -0.54653        0.02372
C         -0.55163       -0.43634       -0.08839
C          0.12172        0.73176       -0.12507
C         -0.72015        2.00063       -0.00349
O         -0.18609        3.08849        0.05638
C         -2.19785        1.86112        0.05097
C         -2.82074        0.67123        0.07251
H          1.80960        2.03030        0.16743
H          1.74540        1.25401       -1.40402
H          1.68161       -1.07067        1.66253
H          1.75954       -2.21026       -1.24890
H         -1.18190       -3.77245       -0.02123
H         -3.36828       -2.28754        0.12453
H         -2.73650        2.81050        0.08337
H         -3.90714        0.57770        0.12488
