16
57347410.log	Energy: -294317.1653541
C          1.33885        1.52125        0.03995
C          0.10386        0.67132        0.02269
C         -1.16239        1.05194       -0.00657
C         -2.55456        1.42356       -0.03391
C         -2.32929        0.11203       -0.01392
C         -2.08566       -1.30824        0.00775
N         -0.85203       -1.72876        0.02741
C          0.28804       -0.83044        0.01549
N          1.46887       -1.38753       -0.01607
C          2.61673       -0.50975       -0.03435
N          2.61003        0.78396       -0.01422
H          1.35977        2.15245        0.96518
H          1.33005        2.23929       -0.81947
H         -3.22199        2.24063       -0.05252
H         -2.91637       -2.02690        0.01390
H          3.56712       -1.06920       -0.06958
