18
57357383.log	Energy: -331297.3873184
C         -0.13141        1.49741        0.00872
C         -1.24821        0.74592        0.00595
C         -2.69856        1.08161        0.00017
N         -3.43758       -0.00917       -0.00528
C         -2.55515       -1.15347       -0.00510
C         -1.24656       -0.76046        0.00196
C          0.01014       -1.47020        0.00147
C          1.10940       -0.69000        0.01223
C          1.13436        0.79260        0.01636
C          2.44244        1.16565        0.00465
N          3.27662        0.00848       -0.12832
O          2.43712       -1.15799        0.01550
H         -0.13204        2.58512        0.00551
H         -3.08930        2.08862        0.00128
H         -2.98765       -2.13877       -0.01021
H          0.02629       -2.55369       -0.01146
H          2.89189        2.15057       -0.01407
H          4.02182       -0.11741        0.56168
