32
57567794.log	Energy: -386022.5844031
C         -0.27246        2.98331        0.37638
C         -0.19639        1.50340        0.19351
C         -1.31163        0.69004        0.06660
C         -2.65601        1.25012        0.00528
C         -3.74726        0.47007       -0.18930
C         -3.60846       -0.95980       -0.33467
C         -2.38344       -1.53773       -0.25522
C         -1.18101       -0.75864       -0.02455
C          0.05874       -1.37187        0.17280
C          1.17145       -0.55845        0.46386
C          2.50735       -0.80526        0.81727
C          3.45822       -0.94223       -0.29398
C          3.51356        0.59800       -0.69480
C          2.24213        1.36587       -0.44871
C          1.10370        0.88181        0.14886
C          0.22667       -2.85732        0.20684
H          0.66495        3.40041        0.76693
H         -1.06269        3.26879        1.08495
H         -0.48448        3.48637       -0.57825
H         -2.75607        2.32934        0.11152
H         -4.74806        0.89320       -0.24383
H         -4.50707       -1.54623       -0.50796
H         -2.27340       -2.61622       -0.36487
H          2.88727       -0.38197        1.74805
H          4.45989       -1.31178       -0.03175
H          3.09004       -1.54539       -1.14250
H          4.33637        1.04481       -0.10247
H          3.79798        0.69111       -1.76031
H          2.23280        2.35901       -0.89486
H         -0.25443       -3.29072        1.09567
H         -0.21751       -3.33420       -0.67786
H          1.28356       -3.15442        0.23644
