27
576199.log	Energy: -521197.3453338
C         -2.38102        1.55455       -0.42884
N         -1.89712        0.18012       -0.14770
C         -2.92333       -0.83230       -0.05817
O         -4.08349       -0.48349       -0.15651
C         -2.46403       -2.21312        0.11635
C         -1.15787       -2.52625        0.16057
C         -0.13727       -1.49400        0.07209
C          1.20845       -1.86369        0.07148
C          2.20716       -0.87792       -0.00177
C          1.86790        0.47597       -0.01256
C          0.51648        0.84869        0.03268
C         -0.52988       -0.11012       -0.00592
N          0.31319        2.31102        0.18230
O          0.88164        3.03710       -0.61524
O         -0.36686        2.69882        1.11619
O          3.48254       -1.39577       -0.03496
C          4.58456       -0.46152       -0.14890
H         -2.35038        2.18702        0.48110
H         -3.44681        1.52072       -0.74816
H         -1.81558        2.02599       -1.24675
H         -3.26378       -2.95422        0.19242
H         -0.82105       -3.56162        0.26904
H          1.50568       -2.91448        0.12203
H          2.63817        1.25145       -0.04610
H          4.51454        0.09989       -1.08535
H          4.62181        0.19460        0.72538
H          5.44739       -1.14225       -0.16377
