20
57730924.log	Energy: -345086.4363916
C         -1.10477       -2.12607       -0.00199
C         -2.16708       -1.26303       -0.00438
C         -2.05960        0.19083        0.00047
O         -2.98398        0.98530        0.00591
C         -0.64043        0.72175       -0.00121
C          0.37899       -0.21517       -0.00063
C          0.22856       -1.62529        0.00015
C          1.55931       -2.15251        0.00270
C          2.49706       -1.11195        0.00200
C          1.79980        0.13699       -0.00013
C          2.08783        1.50064       -0.00091
C          1.03470        2.42939       -0.00136
N         -0.29166        2.05074       -0.00110
H         -1.26469       -3.20610       -0.00346
H         -3.19098       -1.63652       -0.00739
H          1.79502       -3.20327        0.00517
H          3.56274       -1.22102        0.00196
H          3.11677        1.85923       -0.00142
H          1.24564        3.50355       -0.00237
H         -1.03715        2.75313       -0.00030
