21
578523.log	Energy: -345212.8894128
C         -3.20877       -0.91443        0.77552
C         -2.10355       -0.19151        0.06048
O         -2.22861        0.88572       -0.47969
N         -0.87168       -0.90476        0.05719
C          0.28270       -0.53437       -0.65578
C          0.50918        0.60612       -1.35987
C          0.17736        1.85252       -0.67269
C          0.83186        1.99971        0.50540
C          1.81584        1.07517        1.08716
C          2.15123       -0.21233        0.83758
C          1.57678       -1.16375       -0.14858
O          2.04167       -2.22814       -0.46182
H         -3.51581       -1.82683        0.24382
H         -2.95191       -1.19328        1.80530
H         -4.10230       -0.26871        0.83277
H         -0.81582       -1.79115        0.56427
H          1.23786        0.65520       -2.16494
H         -0.50729        2.57807       -1.10136
H          0.67765        2.90717        1.09440
H          2.39968        1.57089        1.88484
H          2.97954       -0.66157        1.39737
