28
58175310.log	Energy: -384580.2604875
C          0.74324       -2.48511        0.23322
C          2.17608       -2.35817       -0.22081
C          2.84896       -1.20313       -0.35541
C          2.24143        0.10104       -0.07912
C          2.73870        1.31163       -0.41852
C          1.97284        2.53490       -0.16849
C          0.67158        2.50827        0.20587
C          0.02646        1.22438        0.37512
C         -1.23948        0.75306        0.17386
C         -2.49952        1.42222       -0.05868
C         -3.61451        0.69102       -0.29515
C         -3.58213       -0.76605       -0.32129
C         -2.43651       -1.45594       -0.11077
C         -1.20516       -0.74088        0.14950
C          0.07491       -1.16511        0.34332
C          0.93772        0.03916        0.66303
H          0.18791       -3.14229       -0.47316
H          0.71529       -3.01341        1.21422
H          2.65297       -3.31263       -0.44979
H          3.88422       -1.18987       -0.69889
H          3.69895        1.42553       -0.91445
H          2.49746        3.47530       -0.33103
H          0.07874        3.40832        0.34212
H         -2.50868        2.50990       -0.03464
H         -4.57755        1.16599       -0.47362
H         -4.52381       -1.27567       -0.51793
H         -2.40004       -2.54253       -0.12439
H          1.16686        0.02366        1.76754
