24
58266.log	Energy: -603597.7891267
C         -4.05871       -0.97770        0.35734
N         -2.94558        0.00985        0.34601
C         -1.99805       -0.16600        1.47273
C         -2.44889        0.34451       -0.93772
N         -1.32546        0.87924       -1.30250
C         -0.13667        1.06385       -0.57335
C          0.28724        2.31478       -0.21268
C          1.59806        2.54955        0.34196
C          2.49363        1.55076        0.54920
C          2.12643        0.19537        0.21525
N          2.85819       -0.90005        0.36237
S          1.93672       -2.23149       -0.17085
N          0.53637       -1.35740       -0.59420
C          0.76261       -0.07611       -0.35431
H         -3.71583       -2.01741        0.22662
H         -4.78832       -0.74651       -0.43591
H         -4.59539       -0.90707        1.31938
H         -1.31836       -1.02521        1.34428
H         -1.39282        0.74961        1.59734
H         -2.55864       -0.30600        2.41194
H         -3.21344        0.26083       -1.74275
H         -0.36160        3.17773       -0.36681
H          1.84947        3.58374        0.58881
H          3.48886        1.71856        0.95835
