24
5853526.log	Energy: -844713.7360906
C          5.41712        1.05065       -0.03818
C          4.07421        0.40185        0.01280
C          3.74452       -0.60280       -0.91442
C          2.49635       -1.22038       -0.87121
C          1.54883       -0.82949        0.09118
C          1.87706        0.16964        1.02110
C          3.13188        0.77867        0.98282
C          0.24037       -1.49235        0.12434
C         -0.94922       -0.86366        0.06384
C         -2.25420       -1.58753        0.13516
O         -2.47681       -2.75081        0.24713
S         -3.56773       -0.33915        0.02739
C         -2.41763        1.02449       -0.12989
S         -2.82500        2.58141       -0.30231
N         -1.13353        0.54635       -0.07478
H          6.20995        0.34125        0.24404
H          5.50217        1.91131        0.63864
H          5.65421        1.41458       -1.04865
H          4.47178       -0.90406       -1.66733
H          2.25233       -2.00278       -1.59004
H          1.15774        0.45991        1.78768
H          3.37861        1.54875        1.71285
H          0.26737       -2.58938        0.20183
H         -0.31725        1.15193       -0.19922
