30
5863134.log	Energy: -465183.6801329
C          2.34017       -2.46811        0.44725
C          1.28228       -1.47011        0.10099
C          1.52148       -0.15641       -0.12520
C          2.83379        0.46263       -0.03047
O          3.91779       -0.01481        0.24984
O          2.71251        1.80936       -0.31999
C          3.93369        2.59254       -0.28372
N          0.00076       -2.07109        0.00269
C         -1.28014       -1.47018       -0.09863
C         -1.51973       -0.15508        0.12000
C         -2.83129        0.46344        0.01675
O         -3.90885       -0.00913       -0.29485
O         -2.71808        1.80352        0.33914
C         -3.93990        2.58538        0.29648
C         -2.34118       -2.46986       -0.43042
H          3.33944       -1.98225        0.55062
H          2.47026       -3.23832       -0.32480
H          2.15417       -2.96586        1.40893
H          0.72057        0.54219       -0.40932
H          3.55903        3.62104       -0.25956
H          4.51971        2.34824        0.60886
H          4.50826        2.38703       -1.19157
H         -0.00032       -3.09831        0.01278
H         -0.71990        0.54468        0.40439
H         -3.56711        3.61464        0.31205
H         -4.50308        2.36649       -0.61714
H         -4.53629        2.35212        1.18329
H         -2.11735       -3.05074       -1.33519
H         -2.53470       -3.16905        0.39460
H         -3.31998       -1.97132       -0.62807
