24
587481.log	Energy: -393370.1036617
C          0.04264        2.73795       -0.00241
C          1.21668        2.02108       -0.00027
C          1.20952        0.59437        0.00375
C          2.41849       -0.19924        0.00550
C          2.34573       -1.59656        0.01223
C          1.09962       -2.24196        0.00353
C         -0.08618       -1.51827       -0.00113
C         -0.04007       -0.08474        0.00044
C         -1.25062        0.68173        0.00186
C         -1.20457        2.06162        0.00047
C         -2.57399       -0.01361        0.00158
O         -3.61830        0.61293        0.00701
C         -2.53999       -1.48962       -0.00545
C         -1.38544       -2.17913       -0.00690
N          3.66890        0.42036       -0.05972
H          0.05191        3.82674       -0.00848
H          2.17123        2.54931       -0.00857
H          3.25116       -2.19745        0.01302
H          1.07584       -3.33421        0.00291
H         -2.13713        2.63783        0.00096
H         -3.51644       -1.97335       -0.01069
H         -1.38202       -3.27231       -0.01301
H          3.74773        1.39982        0.16033
H          4.49094       -0.12401        0.14630
