18
58884026.log	Energy: -500004.0502321
C          1.60732        2.41766        0.91126
N          1.21175        1.38249        0.51794
C          0.74179        0.14253        0.04602
C          1.57390       -0.84046       -0.33565
S          3.31020       -0.79634       -0.32374
C         -0.73715        0.00528        0.00394
C         -1.51064        0.90427       -0.74531
C         -2.89940        0.75616       -0.78762
C         -3.51760       -0.28198       -0.08279
C         -2.74579       -1.17507        0.66728
C         -1.35649       -1.03492        0.71355
H          1.18295       -1.79408       -0.71057
H          3.55137        0.43280        0.17924
H         -1.02997        1.71384       -1.29386
H         -3.50118        1.45248       -1.37047
H         -4.60055       -0.39397       -0.11662
H         -3.22786       -1.98143        1.21895
H         -0.75589       -1.72646        1.30355
