20
589455.log	Energy: -363439.3281242
C         -4.35879        0.06434        0.00605
C         -2.88917       -0.04071       -0.00229
N         -2.18242       -1.17396       -0.01378
C         -0.81192       -0.77613       -0.00984
C          0.31536       -1.51394       -0.00917
C          1.56114       -0.77524        0.01126
N          2.81729       -1.20580        0.01738
N          3.66279       -0.13180       -0.11280
N          2.92431        1.10818        0.09899
C          1.54689        0.73386        0.01035
C          0.42221        1.48508        0.00007
C         -0.82349        0.76398        0.00065
N         -2.07595        1.18216        0.00653
H         -4.69718        1.10305       -0.14863
H         -4.77651       -0.28061        0.96748
H         -4.81157       -0.56346       -0.78016
H          0.33319       -2.60488       -0.01529
H          4.50852       -0.18287        0.48728
H          3.24527        1.85742       -0.53233
H          0.40282        2.57252        0.00487
