25
589861.log	Energy: -447984.6672979
C         -4.64187       -0.70522        0.61705
N         -3.20154       -0.67988        0.20802
C         -2.27773       -0.58092        1.37744
N         -3.04046        0.11688       -0.87597
C         -1.93247        0.63108       -1.31206
C         -0.57037        0.67038       -0.73776
C          0.25550       -0.41252       -0.80868
C          1.57709       -0.27953       -0.26797
N          2.62013       -1.14426       -0.18090
O          3.70326       -0.42477        0.46697
N          3.28937        0.85170        0.74888
C          2.02353        0.98679        0.32774
C          1.10885        2.10170        0.36840
C         -0.13391        1.93261       -0.14957
O          2.85487       -2.28576       -0.47758
H         -4.82292       -1.64032        1.17115
H         -5.28966       -0.71848       -0.27911
H         -4.94088        0.15158        1.23872
H         -2.70757       -1.08975        2.25341
H         -1.33668       -1.10393        1.13354
H         -2.03609        0.45360        1.66564
H         -2.00631        1.12887       -2.29614
H         -0.04399       -1.36171       -1.25466
H          1.45426        3.03663        0.80934
H         -0.85934        2.75041       -0.14480
