29
59003479.log	Energy: -486136.3315832
C         -5.72308        0.31660        0.14633
O         -4.46630        0.98689       -0.09706
C         -3.30450        0.23370       -0.04727
C         -2.15845        0.99311       -0.02804
C         -0.91358        0.30880       -0.01625
C          0.42424        0.71475        0.00434
C          1.08157        1.98476        0.00273
C          2.44403        2.07822        0.00359
C          3.24126        0.88339        0.01686
C          4.59748        0.63297       -0.01219
N          4.82876       -0.76933       -0.12459
N          3.57918       -1.41733        0.14913
C          2.58037       -0.43687        0.04224
C          1.20215       -0.53923        0.01444
N          0.37910       -1.66550       -0.00569
C         -0.88840       -1.16432       -0.02000
C         -2.12432       -1.89594       -0.03851
C         -3.30339       -1.21103       -0.05082
H         -6.42941        1.15693        0.14146
H         -5.71356       -0.17909        1.12086
H         -5.94384       -0.38151       -0.66609
H         -2.19440        2.07708       -0.02356
H          0.45492        2.87889       -0.00478
H          2.95591        3.03559       -0.00356
H          5.42559        1.32664       -0.02454
H          5.61292       -1.17388        0.40359
H          3.45388       -2.33917       -0.28781
H         -2.08173       -2.98463       -0.04303
H         -4.25143       -1.74034       -0.07272
