27
590837.log	Energy: -718033.7493807
C          3.52985        1.79079       -0.68412
Si         3.25905        0.09761        0.03968
C          4.27199       -1.14519       -0.93061
C          3.80080        0.07981        1.83307
N          1.60192       -0.33332       -0.08538
S          0.15091       -0.71071       -0.19501
N         -0.99674        0.32986       -0.01512
C         -2.38456        0.15474        0.00460
C         -3.16355        1.34690       -0.03525
C         -4.55214        1.25359       -0.00727
C         -5.18810        0.00123        0.05411
C         -4.42589       -1.16744        0.09119
C         -3.02225       -1.09975        0.07165
H          4.60554        2.03963       -0.68596
H          2.99679        2.56794       -0.11213
H          3.16631        1.83288       -1.72401
H          5.34600       -0.91695       -0.84601
H          4.10388       -2.16703       -0.55557
H          3.99366       -1.11735       -1.99689
H          3.18101        0.75066        2.44667
H          3.73421       -0.93522        2.25483
H          4.84977        0.41803        1.89791
H         -2.65873        2.31369       -0.08422
H         -5.15505        2.16395       -0.03517
H         -6.27600       -0.04905        0.07461
H         -4.91664       -2.14041        0.14022
H         -2.44520       -2.01968        0.10966
