17
591366.log	Energy: -328353.4093718
C          1.13446        1.68875       -0.00753
C         -0.19131        1.96623       -0.00179
C         -1.12281        0.86960        0.00224
N         -2.45942        0.79953        0.00163
O         -2.79895       -0.52592        0.00469
N         -1.68053       -1.33735        0.00685
C         -0.61007       -0.53165        0.00622
C          0.80761       -0.77800       -0.00202
C          1.65637        0.31980       -0.01189
N          3.05308        0.16640        0.08276
N          1.34841       -2.11408       -0.06567
H          1.86877        2.49809       -0.00001
H         -0.58797        2.98275        0.00063
H          3.40774       -0.75899       -0.15028
H          3.61495        0.90276       -0.31967
H          0.70070       -2.74908       -0.53277
H          1.51119       -2.47802        0.87424
