17
591590.log	Energy: -328353.8192628
C         -0.71899       -1.91714        0.00829
C         -1.46315       -0.76258        0.01187
C         -0.74435        0.49926        0.00885
N         -1.13375        1.78072        0.01985
O          0.00152        2.55284        0.00056
N          1.13634        1.77886       -0.01991
C          0.74487        0.49835       -0.01058
C          1.46167       -0.76437       -0.01216
C          0.71714       -1.91836       -0.00811
N          2.87198       -0.74943        0.09537
N         -2.87315       -0.74699       -0.09465
H         -1.21126       -2.88960        0.00653
H          1.20795       -2.89156       -0.00731
H          3.32260        0.11237       -0.18971
H          3.34439       -1.56260       -0.27652
H         -3.32328        0.11519        0.19015
H         -3.34571       -1.55956        0.27884
