30
59207613.log	Energy: -426912.3512953
C          0.00848        2.90733        0.38646
C         -0.08915        1.44995        0.13464
C         -1.24386        0.72743        0.14629
C         -1.24535       -0.73314       -0.13496
C         -0.09004       -1.45519       -0.13161
C          1.16071       -0.71983        0.24136
N          2.03100       -1.32335        0.97299
C          3.22308       -0.66593        1.50431
C          1.16199        0.71504       -0.23558
N          2.03787        1.32329       -0.95636
C          3.23176        0.66958       -1.48766
C          0.01867       -2.90145       -0.43656
N         -2.49040       -1.38160       -0.39861
C         -3.58618       -0.70577       -0.22757
C         -3.58476        0.70749        0.23512
N         -2.48713        1.37798        0.41428
H          0.87366        3.15999        1.01505
H         -0.89501        3.31161        0.87087
H          0.14143        3.45140       -0.56539
H          3.26660       -0.88719        2.59020
H          4.12123       -1.12671        1.05293
H          3.28862        0.42624        1.38071
H          3.33066       -0.41311       -1.31435
H          3.24367        0.83893       -2.58364
H          4.12692        1.17641       -1.08159
H          0.59080       -3.43255        0.34344
H         -0.96596       -3.39045       -0.51684
H          0.54332       -3.06544       -1.38957
H         -4.54986       -1.18848       -0.42714
H         -4.54745        1.19213        0.43395
