23
5922791.log	Energy: -359014.9736397
C          1.72273        2.07624        0.05192
C          0.20697        2.37761        0.09421
C         -0.51052        1.03542        0.03880
C         -1.85082        0.97270        0.00399
C         -2.72435       -0.19372       -0.06386
O         -3.71211       -0.36523       -0.74389
O         -2.37468       -1.19064        0.83375
C          0.51665       -0.01679       -0.00921
C          0.39265       -1.40165       -0.05723
C          1.55348       -2.18907       -0.11539
C          2.81732       -1.59740       -0.11984
C          2.95805       -0.20072       -0.06451
C          1.81020        0.57701       -0.00978
H          2.24287        2.47546        0.94202
H          2.20525        2.54406       -0.82599
H         -0.06788        2.92456        1.01568
H         -0.09819        3.02254       -0.75057
H         -2.43979        1.90176       -0.00152
H         -3.02768       -1.94057        0.82881
H         -0.59086       -1.87687       -0.04013
H          1.46213       -3.27348       -0.15443
H          3.70948       -2.22229       -0.16326
H          3.94482        0.25404       -0.06418
