36
59390106.log	Energy: -410693.2060279
C          0.53996        2.13673       -1.52931
C         -0.32805        1.28089       -0.67262
C          0.08033        0.16074       -0.03092
C         -0.94276       -0.56339        0.82299
H         -0.56143       -1.44066        1.34652
C         -1.66885        0.53573        1.66551
C         -2.54732        0.77537        0.39935
H         -3.58720        1.07047        0.55307
C         -1.77628        1.72588       -0.53700
C         -2.28614       -0.73175        0.00289
C         -3.26757       -1.68947        0.68165
C         -2.18773       -1.09358       -1.46967
C          1.42267       -0.39743       -0.08430
C          1.81508       -1.56009       -0.70264
O          3.18182       -1.77812       -0.52001
C          3.64456       -0.70250        0.24879
C          2.61610        0.16007        0.53767
C          2.67333        1.40923        1.32270
H          0.63972        3.14712       -1.11068
H          0.12899        2.24081       -2.54243
H          1.55526        1.72637       -1.63525
H         -2.21386        0.15530        2.53326
H         -1.05205        1.37294        1.99710
H         -1.81817        2.75938       -0.14507
H         -2.25729        1.75360       -1.53269
H         -3.37908       -1.49112        1.75291
H         -4.26406       -1.61433        0.23297
H         -2.93667       -2.72904        0.57995
H         -3.15668       -0.98192       -1.96822
H         -1.46798       -0.47633       -2.01874
H         -1.86464       -2.13358       -1.59519
H          1.33692       -2.31709       -1.27989
H          4.68553       -0.75584        0.46240
H          1.80511        1.49183        1.99580
H          3.57915        1.47691        1.93890
H          2.64982        2.29139        0.66469
