33
595794.log	Energy: -500269.7543464
C         -6.10663        0.57346       -0.38930
C         -5.22637       -0.53840       -0.91288
O         -3.81147       -0.16600       -0.77143
C         -3.26837       -0.15567        0.47569
O         -3.82648       -0.52870        1.47345
C         -1.82681        0.41196        0.36866
O         -1.61281        1.59471        0.50752
N         -0.88284       -0.58003        0.13706
C          0.53706       -0.36076        0.03870
C          1.10064        0.92364       -0.01388
C          2.48107        1.07233       -0.11215
C          3.33197       -0.05414       -0.16411
C          2.74709       -1.34227       -0.10797
C          1.36965       -1.49591       -0.00915
N          4.73423        0.08169       -0.41175
C          5.59391       -0.99997        0.14938
C          5.31909        1.42528       -0.14197
H         -6.03362        0.66244        0.70603
H         -7.16156        0.40485       -0.63578
H         -5.81813        1.54801       -0.80822
H         -5.38431       -1.49572       -0.38671
H         -5.28552       -0.67015       -2.00927
H         -1.18842       -1.55067        0.03997
H          0.45969        1.81193        0.02604
H          2.89059        2.08045       -0.15754
H          3.37566       -2.23101       -0.15708
H          0.94638       -2.49827        0.03089
H          6.63037       -0.85725       -0.19864
H          5.59626       -1.04252        1.24932
H          5.25904       -1.97768       -0.23947
H          4.81742        2.17782       -0.77519
H          5.24639        1.74346        0.90969
H          6.38239        1.42536       -0.43358
