27
59601151.log	Energy: -404822.7888191
C          4.69273       -0.94723        0.85055
C          4.12111       -0.33420       -0.42596
C          2.65873       -0.08457       -0.30143
N          2.10843        1.11565       -0.18526
C          0.71292        0.89640       -0.10052
C          0.37477       -0.45141       -0.16463
C          1.63013       -1.23704       -0.30349
C         -1.06098       -0.57119       -0.07559
C         -1.60565        0.70294        0.04640
C         -0.52219        1.77216        0.04589
O         -0.61568        2.95638        0.13762
N         -3.01743        0.69109        0.13574
C         -3.37408       -0.58475        0.07010
C         -2.17853       -1.55376       -0.07251
C         -4.76374       -1.07617        0.12369
H          4.53108       -0.28864        1.71524
H          5.77508       -1.10201        0.75967
H          4.23948       -1.91677        1.08305
H          4.64874        0.62430       -0.64742
H          4.32124       -0.99281       -1.29699
H          1.67502       -1.82974       -1.23511
H          1.80159       -1.94028        0.53238
H         -2.23899       -2.15011       -1.00104
H         -2.12612       -2.27186        0.76624
H         -5.04853       -1.59506       -0.80417
H         -4.91885       -1.77559        0.95857
H         -5.48269       -0.24674        0.26027
