20
596299.log	Energy: -357476.5496190
C         -2.79025       -0.83956        1.11008
C         -2.45086        0.30253        0.15708
O         -3.35171        0.64834       -0.58581
C         -0.94434        0.99078        0.11085
C          0.28254        1.55022        0.07323
C          1.72954        0.95994        0.05791
O          2.67014        1.71757        0.21844
C          1.97748       -0.57465       -0.02772
C          0.89598       -1.42148        0.26399
C         -0.13246       -1.37072       -0.77804
C         -0.81672       -0.21469       -0.97439
O          3.22613       -1.10119        0.04771
H         -3.87280       -1.04489        1.01239
H         -2.62322       -0.57882        2.16356
H         -2.28346       -1.77603        0.82564
H          0.40202        2.61479        0.31927
H          0.40536       -1.10364        1.20980
H         -0.45419       -2.31485       -1.22969
H         -1.56194       -0.10251       -1.77742
H          3.12630       -2.10604        0.07572
