32
59717834.log	Energy: -396235.0050167
C         -6.85442        0.58925        0.32242
C         -5.52256        0.06577        0.28636
C         -4.40032       -0.37848        0.25785
C         -3.06317       -0.90779        0.22375
O         -2.21850        0.23467       -0.14969
C         -0.86684        0.00896       -0.27980
C         -0.21461       -1.20820       -0.05629
C          1.17355       -1.26196       -0.23074
C          1.89757       -0.12868       -0.61580
C          1.21621        1.08549       -0.83566
C         -0.15968        1.16655       -0.67157
C          3.38746       -0.19955       -0.79028
C          4.13114       -0.08075        0.56215
H          3.64519       -0.77502        1.29875
C          5.60487       -0.47795        0.41131
N          4.06962        1.34489        1.01946
H         -6.87044        1.61994        0.72269
H         -7.51768       -0.02077        0.96075
H         -7.30670        0.62364       -0.68498
H         -2.73022       -1.27328        1.21729
H         -2.94351       -1.69564       -0.54861
H         -0.75134       -2.10029        0.24355
H          1.69103       -2.20617       -0.06244
H          1.77778        1.97072       -1.13896
H         -0.70492        2.09301       -0.83770
H          3.67070       -1.14803       -1.28760
H          3.74450        0.60186       -1.47194
H          6.12981        0.21074       -0.26502
H          6.13281       -0.44420        1.37018
H          5.71127       -1.48935        0.00856
H          3.10507        1.65408        1.10359
H          4.50211        1.45106        1.93097
