30
5973096.log	Energy: -501759.6844881
C         -4.10749       -1.74120       -0.00973
C         -3.87705       -0.63350       -0.83277
C         -2.61537       -0.03584       -0.86713
C         -1.58213       -0.54525       -0.06415
C         -1.80928       -1.66700        0.74957
C         -3.07385       -2.25854        0.77828
C         -0.24548        0.08747       -0.08730
C          0.05530        1.39774       -0.05499
C         -0.88961        2.51519        0.01127
O         -0.86061        3.53642       -0.62772
O         -1.92051        2.41520        0.93373
O          0.69051       -0.92272       -0.16605
C          2.06861       -0.62459       -0.07950
C          2.84057       -1.01843       -1.17589
C          4.22714       -0.87103       -1.08211
C          4.80478       -0.33640        0.07522
C          4.00296        0.05310        1.15434
C          2.61383       -0.08716        1.08986
H         -5.09431       -2.20412        0.01503
H         -4.68235       -0.23402       -1.44977
H         -2.43648        0.82579       -1.51458
H         -0.99340       -2.07592        1.34832
H         -3.25303       -3.12631        1.41227
H          1.09380        1.74212       -0.14323
H         -1.93667        1.58369        1.45596
H          2.36601       -1.43097       -2.06440
H          4.85953       -1.17147       -1.91797
H          5.88645       -0.22172        0.13650
H          4.46171        0.46849        2.05212
H          1.97611        0.20586        1.92036
