24
59779930.log	Energy: -416586.6655633
C         -3.67336        0.72397       -0.41249
C         -2.55748        1.41820       -0.11257
C         -1.29829        0.73815        0.21317
C         -0.17700        1.42932        0.50322
C          1.12192        0.78017        0.85810
C          1.12355       -0.77520        0.85982
C         -0.16937       -1.42888        0.49191
C         -1.29396       -0.74131        0.20530
C         -2.54814       -1.42560       -0.13117
C         -3.66853       -0.73462       -0.42242
C          2.21251       -1.19011       -0.14633
O          2.57483       -2.29313       -0.46079
N          2.78979        0.00333       -0.67133
C          2.20082        1.19575       -0.15787
O          2.55242        2.29896       -0.48425
H         -4.61153        1.22141       -0.65682
H         -2.54570        2.50832       -0.10208
H         -0.14846        2.52118        0.49446
H          1.43497        1.15372        1.86924
H          1.42701       -1.14612        1.87480
H         -0.13416       -2.52041        0.47258
H         -2.52864       -2.51566       -0.13590
H         -4.60314       -1.23489       -0.67447
H          3.52700        0.00335       -1.37418
