22
59832555.log	Energy: -322593.1736973
C         -3.71295       -0.02652       -0.00215
C         -2.94421       -1.15385        0.00227
C         -1.53611       -0.73845        0.00231
C         -0.38114       -1.43322        0.00121
C          0.88438       -0.71235       -0.00068
C          2.07972       -1.38698       -0.00211
N          3.29764       -0.70776       -0.00231
C          3.32123        0.69858        0.00025
C          2.16694        1.41330        0.00129
C          0.86460        0.76293        0.00071
C         -0.30587        1.46517        0.00167
C         -1.55727        0.76529        0.00041
C         -2.86328        1.17054       -0.00280
H         -4.78695        0.02749       -0.00389
H         -3.26057       -2.17629        0.00437
H         -0.35888       -2.52020        0.00196
H          2.13514       -2.48017       -0.00371
H          4.16620       -1.22586        0.00333
H          4.31172        1.16001        0.00033
H          2.18623        2.50236        0.00227
H         -0.32706        2.55059        0.00283
H         -3.24547        2.16979       -0.00552
