30
59848633.log	Energy: -501754.9258912
C         -4.56709       -1.27659        1.09897
C         -4.41969        0.05538        1.50514
C         -3.45569        0.86468        0.90322
C         -2.62232        0.33743       -0.10036
C         -2.77508       -0.99570       -0.50906
C         -3.74752       -1.79831        0.09465
C         -1.61211        1.21100       -0.72672
C         -0.31408        0.99685       -1.02645
C          0.41949       -0.26773       -0.85906
O         -0.05104       -1.35451       -1.14668
C          1.82162       -0.15987       -0.35810
C          2.71463       -1.21055       -0.65284
C          4.02877       -1.17149       -0.20357
C          4.43541       -0.06403        0.56311
C          3.56364        0.98740        0.88768
C          2.25123        0.92519        0.41715
O          5.74271       -0.08664        0.97266
O         -2.17554        2.44988       -0.94021
H         -5.32356       -1.90583        1.56702
H         -5.06024        0.46156        2.28589
H         -3.34690        1.90841        1.20127
H         -2.12396       -1.41086       -1.29041
H         -3.86077       -2.83504       -0.22060
H          0.28941        1.79554       -1.45927
H          2.35607       -2.06284       -1.24049
H          4.73758       -1.96691       -0.42354
H          3.89549        1.82470        1.49143
H          1.55456        1.72831        0.66746
H          5.98248        0.70543        1.51547
H         -1.55643        3.08563       -1.38287
