20
599430.log	Energy: -368281.7595738
C          3.21333       -0.80551       -0.33295
C          2.00688       -1.35881       -0.55903
C          0.76389       -0.65142       -0.18929
C         -0.38640       -1.36403       -0.14296
C         -1.70168       -0.92383        0.32436
O         -2.42305       -1.58598        1.03189
C         -2.14411        0.43285       -0.18660
C         -1.43071        1.58435       -0.19229
C         -0.05088        1.72731        0.16169
C          0.92249        0.76575        0.15613
N          2.22335        1.26849        0.48039
C          3.27619        0.53638        0.25736
O         -3.43299        0.34963       -0.61469
H          4.14914       -1.30523       -0.57458
H          1.89966       -2.35169       -0.99911
H         -0.38176       -2.43081       -0.40536
H         -1.93191        2.51707       -0.47638
H          0.25413        2.75835        0.41650
H          4.26121        0.94709        0.51693
H         -3.77970        1.21837       -0.95678
