28
600639.log	Energy: -441236.2339072
C          0.14649       -2.35604       -0.20990
C         -0.19857       -0.91296       -0.14460
C          0.73112        0.08104       -0.21552
C          0.39408        1.52525       -0.21693
O          1.22295        2.39758       -0.35605
C         -1.07373        1.91456       -0.05969
C         -1.99672        0.77341        0.06429
C         -1.59595       -0.52811        0.01921
N         -2.70115       -1.45980        0.05553
C         -3.94405       -0.61445        0.22507
C         -3.48686        0.87066        0.23716
C          2.17197       -0.24746       -0.33510
O          2.77452       -0.69691       -1.28118
O          2.78413       -0.02461        0.87922
C          4.22336       -0.21955        0.92431
H          0.30951       -2.77716        0.79412
H          1.06738       -2.54603       -0.79091
H         -0.64560       -2.95175       -0.69459
H         -1.16143        2.59614        0.81986
H         -1.35386        2.56063       -0.92683
H         -2.59905       -2.15370        0.80031
H         -4.50788       -0.87883        1.13678
H         -4.59613       -0.82457       -0.64889
H         -3.75929        1.38709        1.17452
H         -3.95782        1.44243       -0.58318
H          4.47157       -1.23997        0.61859
H          4.70626        0.51197        0.26750
H          4.45469       -0.03408        1.97822
