28
60101478.log	Energy: -407786.4956340
C          1.98573        2.08323       -0.10385
C          2.41725        0.74955        0.55130
C          3.40418       -0.03488       -0.26060
C          3.18851       -1.30559       -0.64186
C          1.92261       -1.99416       -0.41506
C          0.89784       -1.36042        0.18989
C          1.08136        0.01090        0.79809
C          0.01446        0.91873        0.23348
C         -1.26975        0.50838        0.04442
C         -2.36952        1.37678       -0.33389
C         -3.63373        0.90163       -0.40492
C         -3.91276       -0.49518       -0.10982
C         -2.92065       -1.36578        0.18210
C         -1.52048       -0.94238        0.19712
C         -0.48606       -1.82765        0.25916
O          0.50725        2.15047       -0.08925
H          2.29675        2.97874        0.45219
H          2.25719        2.16254       -1.16887
H          2.89736        0.96546        1.54018
H          4.33057        0.48525       -0.49166
H          3.94998       -1.86874       -1.18428
H          1.82501       -3.00438       -0.80457
H          0.91692       -0.09754        1.90549
H         -2.12554        2.42005       -0.53843
H         -4.47304        1.53683       -0.67468
H         -4.95603       -0.80948       -0.13359
H         -3.12283       -2.41161        0.40538
H         -0.64827       -2.89987        0.29351
