30
603643.log	Energy: -486288.1790027
C         -4.93562        0.64016       -0.00027
N         -3.60291        0.05688       -0.33510
C         -3.40571       -1.24011        0.39751
C         -2.12630       -1.94133       -0.11436
C         -1.01266       -0.96393       -0.06788
C         -1.18059        0.41141       -0.04158
C         -2.51836        1.06191       -0.04016
C          0.12802        1.01869       -0.00951
C          1.07725       -0.07866       -0.01752
N          0.36831       -1.27778       -0.04956
C          2.46651        0.17186        0.00964
C          2.89798        1.50716        0.04068
C          1.97814        2.56234        0.04654
C          0.59887        2.33011        0.02101
N          3.42819       -0.92333        0.00284
O          2.98111       -2.06865       -0.01511
O          4.61800       -0.65721        0.01591
H         -5.72378       -0.05614       -0.33142
H         -5.07620        1.57073       -0.57453
H         -5.09428        0.86313        1.06501
H         -3.34454       -1.11217        1.49931
H         -4.28395       -1.88830        0.18842
H         -1.92159       -2.84858        0.48510
H         -2.28084       -2.28103       -1.16402
H         -2.57183        1.82431       -0.85395
H         -2.66858        1.59950        0.92436
H          0.79247       -2.19761       -0.07195
H          3.97414        1.71432        0.06079
H          2.34925        3.58654        0.07030
H         -0.10342        3.16415        0.02434
