30
604283.log	Energy: -488772.2596295
C          4.47452        0.05338        0.56290
C          4.15866       -1.30020        0.43518
C          2.84594       -1.68905        0.14063
C          1.85150       -0.71744       -0.02866
C          2.17034        0.64729        0.10244
C          3.48007        1.02790        0.39895
C          1.11384        1.71092       -0.07222
O          1.37893        2.88051        0.12999
C         -0.21097        1.26150       -0.49379
C         -0.53891       -0.04297       -0.66839
C          0.46732       -1.14846       -0.33897
O          0.10070       -2.30556       -0.32623
N         -1.72536       -0.51910       -1.20161
C         -2.92254        0.34467       -1.32658
C         -3.60616        0.63806        0.01422
C         -4.31456       -0.58858        0.59610
O         -5.09781       -0.21456        1.73536
H          5.49692        0.35756        0.79195
H          4.93202       -2.05791        0.56399
H          2.58764       -2.74733        0.04135
H          3.71677        2.09229        0.50316
H         -0.92070        2.06866       -0.67783
H         -1.91478       -1.52027       -1.07866
H         -2.63013        1.30415       -1.81760
H         -3.62713       -0.15984       -2.02835
H         -2.87125        1.03861        0.74164
H         -4.34946        1.45330       -0.11885
H         -5.07715       -1.00113       -0.09310
H         -3.60635       -1.38437        0.88632
H         -4.52774        0.12470        2.45336
