23
604734.log	Energy: -449785.5213465
C         -3.34607       -1.55573       -0.06508
C         -3.70474       -0.18749       -0.07411
C         -2.73771        0.79794       -0.01158
C         -1.37091        0.42571        0.06237
C         -0.99598       -0.94262        0.03815
C         -2.01584       -1.92620       -0.01121
C          0.40124       -1.29106        0.03218
C          1.36822       -0.33204        0.02648
C          1.04343        1.11312        0.03672
N          1.81223        2.14558       -0.04946
N         -0.36477        1.39372        0.30114
O         -0.80345        2.66304       -0.13027
C          2.79360       -0.67821       -0.03198
O          3.76092        0.04462       -0.13955
O          2.98641       -2.04246        0.05768
H         -4.12934       -2.31120       -0.10376
H         -4.76042        0.08570       -0.13084
H         -2.99935        1.85876       -0.01635
H         -1.73411       -2.98032       -0.00826
H          0.67333       -2.35582        0.01236
H          2.82690        2.02553       -0.11348
H         -0.12421        3.32555        0.26307
H          3.95252       -2.28537        0.02097
