28
604822.log	Energy: -415629.3855473
C          3.58317        1.06853        0.06636
C          2.17392        0.58202        0.02643
N          1.19432        1.47217        0.03650
C         -0.12817        1.02198        0.00273
C         -1.19362        1.98543       -0.00948
C         -2.51151        1.52551        0.02517
C         -2.80172        0.15426        0.03805
C         -1.78197       -0.79827        0.01356
C         -0.41498       -0.38039       -0.00541
N          0.63311       -1.30194       -0.02584
C          1.88045       -0.85848       -0.01802
C          2.98867       -1.85679       -0.05246
O         -2.28252       -2.07628        0.01657
C         -1.38181       -3.21063       -0.00451
N         -0.92236        3.36866       -0.16051
H          4.10833        0.70055        0.95919
H          3.63606        2.17032        0.08892
H          4.14465        0.73762       -0.81925
H         -3.33775        2.23621        0.02502
H         -3.83878       -0.18425        0.05899
H          3.63011       -1.77251        0.83635
H          2.60918       -2.89175       -0.08224
H          3.62096       -1.71901       -0.94149
H         -0.78052       -3.19896       -0.91879
H         -0.74652       -3.20739        0.88629
H         -2.09004       -4.04732        0.00502
H          0.04788        3.63170       -0.01086
H         -1.55345        3.98382        0.33477
