28
605297.log	Energy: -438746.4948763
C         -3.53898       -0.16434       -0.44827
C         -2.97987        0.89792        0.50472
C         -1.87600        0.31450        1.39809
N         -0.78169       -0.38269        0.64443
C         -1.32913       -1.39950       -0.31025
C         -2.40727       -0.82637       -1.24263
C          0.27354        0.43427        0.15736
C          1.58532       -0.07802       -0.05924
C          2.63363        0.80943       -0.38053
C          2.38012        2.16659       -0.50617
C          1.06558        2.62120       -0.26982
N          0.05214        1.79572        0.05120
N          1.97098       -1.48731        0.12965
O          2.92634       -1.69671        0.85713
O          1.36251       -2.35311       -0.47569
H         -4.26906        0.29514       -1.14069
H         -4.09900       -0.93008        0.12252
H         -2.57075        1.75106       -0.07658
H         -3.78612        1.31721        1.13359
H         -2.29754       -0.45364        2.08668
H         -1.43472        1.11181        2.03536
H         -1.74396       -2.22354        0.31368
H         -0.50613       -1.84701       -0.91542
H         -2.80786       -1.63739       -1.88013
H         -1.95414       -0.08976       -1.93486
H          3.64643        0.41519       -0.51953
H          3.16944        2.86723       -0.76660
H          0.81102        3.68817       -0.34607
