23
605796.log	Energy: -447748.7162783
C          1.36325       -2.38327        0.64190
C          0.60275       -1.12276        0.43447
C         -0.74945       -1.13355        0.37891
C         -1.54070        0.09129        0.25235
C         -2.86091        0.07656       -0.09062
C         -3.64319        1.27031       -0.21177
N         -4.27618        2.23254       -0.31049
C         -3.57294       -1.13525       -0.36742
N         -4.14706       -2.11356       -0.58954
C         -0.82105        1.34434        0.53394
C          0.52153        1.37165        0.57821
C          1.32861        0.16721        0.29981
C          2.62282        0.30082       -0.10121
C          3.25594        1.58666       -0.21334
N          3.77332        2.61593       -0.30284
C          3.49189       -0.77504       -0.47844
N          4.21504       -1.61888       -0.79649
H          0.74748       -3.17743        1.09522
H          2.23080       -2.25549        1.30746
H          1.73585       -2.79894       -0.31083
H         -1.30313       -2.07627        0.44434
H         -1.41862        2.24431        0.71256
H          1.06048        2.29762        0.80612
