31
606706.log	Energy: -396011.7726151
C          1.56206        1.15819        2.13555
C          1.77085        1.40984        0.68956
C          2.52870        0.65513       -0.15614
C          2.21617       -0.77215       -0.18022
C          0.88555       -0.98986       -0.39538
C          0.22488       -2.30777       -0.39298
C         -1.11855       -2.12732       -0.42997
C         -1.39899       -0.68394       -0.50972
C         -0.22317        0.02499       -0.54956
C         -0.10274        1.50065       -0.70432
C          0.81131        2.25527       -0.04496
C         -1.05698        2.15822       -1.65255
C         -2.81459       -0.20510       -0.49341
C         -3.37178       -0.27901        0.84831
N         -3.81571       -0.32991        1.91389
C          3.26510       -1.80880       -0.04657
H          1.83225        2.05038        2.72046
H          2.16648        0.32149        2.51120
H          0.50835        0.93316        2.36767
H          2.95798        1.06458       -1.06752
H          0.76801       -3.23334       -0.34574
H         -1.89035       -2.87321       -0.40712
H          0.88156        3.32965       -0.07472
H         -2.09791        2.11566       -1.28739
H         -1.02928        1.66248       -2.63479
H         -0.82067        3.21744       -1.82010
H         -2.89674        0.85103       -0.86844
H         -3.43234       -0.81724       -1.19644
H          4.14731       -1.56228       -0.65824
H          3.61747       -1.86724        0.99632
H          2.93093       -2.81318       -0.33821
