22
607058.log	Energy: -508604.1294694
C         -2.58287        3.10041        0.07831
O         -1.14675        2.91648        0.05125
C         -0.66832        1.62171        0.03688
C         -1.45500        0.45410        0.03898
C         -0.83970       -0.79701        0.02940
C          0.57899       -0.89319       -0.01526
C          1.35592        0.29733       -0.01079
C          0.72800        1.55547        0.01956
N          2.81307        0.24388       -0.03866
O          3.32758       -0.88123       -0.08886
O          3.44802        1.27611       -0.01287
O          1.09534       -2.12415       -0.08296
C         -1.67571       -2.01778        0.08108
O         -1.50208       -3.07852        0.62349
O         -2.85873       -1.79054       -0.60383
H         -2.65854        4.19781        0.08696
H         -3.00861        2.67545        0.99150
H         -3.04048        2.68761       -0.82568
H         -2.54930        0.50830        0.04272
H          1.32721        2.47607        0.02591
H          2.13811       -2.13574       -0.09318
H         -3.45483       -2.58807       -0.59620
