29
607778.log	Energy: -384697.5354579
C         -2.03525       -1.18368        1.84653
C         -1.86222       -1.35332        0.38326
C         -2.30788       -0.50076       -0.58049
C         -1.92298        0.90120       -0.41257
C         -0.57161        1.02759       -0.25911
C          0.15505        2.29194       -0.03442
C          1.45977        2.01362        0.20656
C          1.65998        0.55848        0.12495
C          0.47276       -0.05859       -0.20066
C          0.31973       -1.52171       -0.44739
C         -0.78616       -2.23205       -0.11459
C          1.48429       -2.21309       -1.08421
C          2.97811       -0.03233        0.40942
O          4.00922        0.60920        0.40842
C         -2.90896        2.00153       -0.48594
H         -2.43379       -2.10604        2.29566
H         -2.72939       -0.36939        2.09719
H         -1.08114       -0.96879        2.35358
H         -2.49070       -0.82358       -1.60334
H         -0.32427        3.25195       -0.06039
H          2.27134        2.68916        0.41772
H         -0.90439       -3.29799       -0.22607
H          2.26523       -2.45564       -0.34513
H          1.94845       -1.59237       -1.86586
H          1.19560       -3.15855       -1.56441
H          2.98504       -1.11319        0.64825
H         -3.47582        1.96123       -1.43035
H         -3.65061        1.91581        0.32484
H         -2.45710        3.00087       -0.41699
