30
607760.log	Energy: -631766.4189217
C          3.95740        0.41824        1.19486
C          3.94294       -1.05579        0.77076
C          2.50373       -1.56384        0.57252
C          1.67695       -0.56722       -0.16256
C          1.98317        0.73108       -0.34202
C          3.28467        1.31037        0.13957
C          1.02585        1.66165       -0.95371
N         -0.24899        1.46230       -1.14837
N         -0.83964        0.24689       -1.07910
S          0.19745       -1.19941       -0.86435
C         -2.05588        0.15735       -0.29383
C         -2.85999       -0.97968       -0.50348
C         -4.06795       -1.09731        0.18490
C         -4.48254       -0.09556        1.06945
C         -3.68344        1.03457        1.26528
C         -2.46678        1.16770        0.59322
H          3.43520        0.53223        2.16521
H          4.99699        0.75557        1.36316
H          4.51214       -1.17909       -0.17173
H          4.45861       -1.67632        1.52651
H          2.52516       -2.53995        0.04305
H          2.03365       -1.76859        1.56062
H          3.13127        2.32588        0.55647
H          3.95753        1.43598       -0.73627
H          1.39692        2.66537       -1.21432
H         -2.55366       -1.75697       -1.20420
H         -4.69350       -1.97525        0.02714
H         -5.42654       -0.19509        1.60094
H         -4.00821        1.81850        1.94860
H         -1.85325        2.05462        0.74699
