23
608272.log	Energy: -428996.1983532
C          3.02400       -0.96184       -1.24470
C          3.77415       -0.44926       -0.18099
C          3.14276        0.16769        0.90072
C          1.74366        0.26529        0.89216
C          0.96499       -0.24243       -0.17100
C          1.62997       -0.85686       -1.23934
C         -0.50133       -0.11164       -0.15946
C         -1.30947       -1.11612        0.20406
C         -2.79365       -0.98077        0.24691
O         -3.51648       -1.90196        0.55142
C         -3.34404        0.36912       -0.10276
C         -2.55300        1.37486       -0.47508
C         -1.06410        1.22836       -0.58453
O         -0.37934        2.12935       -1.00542
O          1.04528        0.84549        1.92243
H          3.52635       -1.44000       -2.08331
H          4.86196       -0.53041       -0.19453
H          3.72369        0.56696        1.72606
H          1.05103       -1.25359       -2.07482
H         -0.92638       -2.09443        0.51040
H         -4.43111        0.45749       -0.02826
H         -2.93005        2.36893       -0.73213
H          1.64532        1.22351        2.61329
