22
608253.log	Energy: -584472.8986759
C          3.16779        0.65890        0.00428
C          1.79523        1.32418       -0.00001
O          1.64880        2.52632       -0.00056
C          0.74503        0.31643       -0.00238
C         -0.63867        0.32690       -0.00226
C         -1.46178        1.48864       -0.00329
C         -2.81886        1.55266       -0.00129
C         -3.77279        0.48679        0.00384
C         -3.57163       -0.85967        0.00446
C         -2.34542       -1.59103       -0.00099
C         -1.07909       -1.09943       -0.00262
C          0.14158       -1.92290       -0.00328
C          1.19909       -1.06860       -0.00267
S          2.93193       -1.15429        0.00149
H          3.75719        0.96701       -0.87943
H          3.74980        0.96551        0.89346
H         -0.88949        2.43799       -0.00560
H         -3.26941        2.55883       -0.00236
H         -4.82045        0.82923        0.00837
H         -4.47101       -1.49613        0.00963
H         -2.46166       -2.68696       -0.00257
H          0.14074       -2.99465       -0.00350
