28
609466.log	Energy: -506381.2465811
C         -5.25223       -0.05418       -0.01964
C         -3.77268       -0.28387        0.02717
C         -2.92909        0.77294       -0.05469
C         -1.47505        0.74486       -0.03639
C         -0.76623        1.95621       -0.01260
N          0.61411        1.92043        0.00291
C          1.34148        0.73565       -0.00598
N          2.68793        0.78775        0.01406
C          3.31916       -0.48507        0.01345
N          2.69943       -1.68490       -0.02079
C          1.30782       -1.81188       -0.04663
O          0.73687       -2.87023       -0.07738
C          0.51888       -0.47446       -0.03408
N         -0.79646       -0.46903       -0.04799
N          4.69424       -0.45588        0.06923
O          1.21830        3.17187        0.02644
C         -3.35633       -1.70322        0.15029
H         -5.53481        1.00539        0.02100
H         -5.76230       -0.55488        0.81625
H         -5.67886       -0.46672       -0.94701
H         -3.35208        1.77793       -0.14518
H         -1.25335        2.93824       -0.00298
H          5.21421       -1.32080        0.02799
H          5.19460        0.41519        0.03290
H          2.24165        3.01352        0.05425
H         -4.18888       -2.40960        0.22672
H         -2.73107       -2.01736       -0.70816
H         -2.69970       -1.86458        1.02454
