28
610387.log	Energy: -405435.0370846
C         -3.65900       -1.16741       -0.01384
C         -2.47641       -1.84762       -0.00373
C         -1.22332       -1.13524        0.00699
C          0.00058       -1.81934        0.01095
C          1.22442       -1.13473        0.00902
C          1.22454        0.30031        0.00614
C         -0.00004        0.98136       -0.00302
C         -1.22471        0.30006        0.00810
C         -2.51665        0.98024        0.00686
C         -3.69277        0.25831       -0.00021
N         -2.55939        2.39192       -0.06259
C          2.51591        0.98152       -0.00051
C          3.69202        0.25905        0.00353
C          3.66031       -1.16666       -0.00205
C          2.47744       -1.84672        0.00622
N          2.55988        2.39151       -0.08472
H         -4.61116       -1.69903       -0.02889
H         -2.44832       -2.93407       -0.00721
H          0.00116       -2.90867        0.00864
H         -0.00079        2.07246       -0.03662
H         -4.65949        0.75125       -0.00957
H         -1.77199        2.89619        0.31406
H         -3.44080        2.82618        0.17088
H          4.65879        0.75215       -0.00539
H          4.61273       -1.69814       -0.00882
H          2.44933       -2.93317        0.00567
H          3.43362        2.83140        0.16516
H          1.75960        2.90062        0.25665
