23
610325.log	Energy: -475403.9513493
C          4.17875       -0.57681        0.03590
O          2.96166       -1.37519        0.04289
C          1.75780       -0.74494        0.06148
C          0.67805       -1.54819       -0.12511
C         -0.66662       -1.01729       -0.07157
C         -0.88135        0.33395        0.03195
C          0.23839        1.31523        0.00864
O          0.17922        2.47373       -0.31390
C          1.60820        0.72054        0.41954
O          2.65500        1.48425       -0.17260
O         -2.11247        0.90868        0.10229
C         -3.29133        0.07942        0.05400
O         -4.30114        0.72037        0.13962
C         -3.06772       -1.35489       -0.07870
C         -1.82787       -1.88557       -0.13738
H          4.94918       -1.35690        0.03981
H          4.22898        0.05344        0.92861
H          4.21558        0.03200       -0.87539
H          0.81088       -2.61115       -0.32515
H          1.72282        0.82887        1.53486
H          2.29569        2.35404       -0.51788
H         -3.97624       -1.96161       -0.12798
H         -1.66278       -2.96219       -0.23588
