27
610424.log	Energy: -415442.7743354
C          0.15526        2.42096        0.50135
C          0.55010        1.03023        0.21286
C         -0.28135       -0.06616       -0.01494
N          0.49879       -1.23178       -0.24401
C          1.84171       -0.86787       -0.18490
N          2.94983       -1.65838       -0.35634
C          4.11454       -1.00286       -0.21971
C          4.19421        0.39953        0.08105
N          3.11414        1.17985        0.24957
C          1.91054        0.55551        0.11480
C         -1.74378       -0.14144       -0.02706
C         -2.41143       -1.11201        0.73898
C         -3.80678       -1.17021        0.72307
C         -4.54088       -0.26466       -0.05060
C         -3.87695        0.70315       -0.81100
C         -2.48133        0.76824       -0.80183
H          0.12917        3.02520       -0.41909
H          0.88281        2.90757        1.17287
H         -0.83357        2.48581        0.97651
H          0.14382       -2.13867       -0.48942
H          5.02977       -1.59210       -0.34945
H          5.17296        0.88030        0.18268
H         -1.84371       -1.80713        1.35589
H         -4.32442       -1.92022        1.31996
H         -5.62867       -0.31281       -0.05840
H         -4.44816        1.40875       -1.41317
H         -1.96244        1.52098       -1.39539
