24
611430.log	Energy: -450326.9592780
C          3.63564       -1.26348       -0.14134
C          3.84711        0.12516       -0.10579
C          2.77728        1.00896        0.00752
C          1.47168        0.49625        0.09053
C          1.24552       -0.90834        0.01836
C          2.34686       -1.78282       -0.08523
N         -0.05853       -1.45777        0.02433
C         -1.07714       -0.65148        0.06207
C         -2.48593       -1.24460        0.03437
O         -2.67998       -2.42546        0.18965
C         -3.57346       -0.26840       -0.17501
C         -3.36724        1.06115       -0.21883
C         -2.04441        1.64077       -0.08119
C         -0.96645        0.83468        0.08153
N          0.34471        1.33351        0.38916
O          0.53394        2.64968       -0.10214
H          4.48973       -1.93621       -0.21994
H          4.86471        0.51476       -0.16827
H          2.93789        2.08711        0.02355
H          2.16480       -2.86064       -0.12502
H         -4.56483       -0.71278       -0.27851
H         -4.19627        1.75967       -0.36374
H         -1.94769        2.72467       -0.12717
H          0.55988        3.21249        0.74266
