30
612226.log	Energy: -486380.8492923
C         -3.10212       -2.52942       -0.78007
O         -2.08740       -1.48675       -0.80273
C         -1.42840       -1.23809        0.37443
O         -1.63202       -1.86295        1.38600
C         -0.46086       -0.11090        0.15738
C         -0.95968        1.20859        0.09575
C         -0.01212        2.26184       -0.06487
N          1.34743        2.00782       -0.13811
C          1.78679        0.73398       -0.08615
C          0.89963       -0.38045        0.06037
C          1.42299       -1.78451        0.14827
C          2.87525       -1.92084       -0.32371
C          3.74938       -0.81225        0.26973
C          3.27502        0.56180       -0.21180
N         -0.38258        3.58642       -0.20592
C         -2.35032        1.48261        0.17843
N         -3.48198        1.71677        0.24451
H         -3.74489       -2.25648       -1.62487
H         -3.65238       -2.51659        0.16796
H         -2.60546       -3.49089       -0.93440
H          0.78180       -2.47221       -0.44331
H          1.33580       -2.12815        1.20465
H          2.91774       -1.88423       -1.43027
H          3.26938       -2.91445       -0.03705
H          3.71856       -0.85699        1.37675
H          4.80884       -0.96311       -0.01202
H          3.80262        1.36997        0.34191
H          3.55570        0.71678       -1.27857
H         -1.31904        3.88319        0.01308
H          0.33329        4.29937       -0.21996
