30
612231.log	Energy: -486281.2103381
C          3.66323       -0.05329        0.05395
C          2.16025        0.14729       -0.02179
O          1.79547        1.23482        0.85227
C          0.94101        2.17441        0.15339
C          0.88540        1.67744       -1.29605
O          1.83803        0.59028       -1.35851
C          1.41004       -1.12352        0.32089
C          0.74885       -1.38312        1.47496
C         -0.23154       -0.38825        1.92202
C         -1.19480       -0.26882        0.97945
C         -1.27783       -0.98253       -0.39752
N         -2.41004       -0.63028       -0.97889
C         -3.07461        0.28905       -0.03734
N         -2.37500        0.53492        1.08506
N         -4.33394        0.75879       -0.33469
C         -0.32643       -1.88717       -1.07465
C          0.98884       -1.99917       -0.78984
H          4.17656        0.91912        0.08186
H          4.03061       -0.59552       -0.82661
H          3.95540       -0.60606        0.95472
H          1.43118        3.15346        0.27752
H         -0.03293        2.15788        0.67439
H          1.24297        2.40437       -2.04268
H         -0.09695        1.27009       -1.58889
H          0.57519       -2.40502        1.82382
H         -0.20514        0.13019        2.87131
H         -4.67211        0.66733       -1.28085
H         -4.70948        1.51486        0.21804
H         -0.77451       -2.44859       -1.90432
H          1.68955       -2.62088       -1.33358
