27
612675.log	Energy: -428439.1523523
C          3.99259       -0.60590       -0.00122
C          2.95027       -1.47073       -0.02528
C          1.56768       -1.00599       -0.01188
N          0.57373       -1.86933       -0.01130
C         -0.76507       -1.42238        0.00019
C         -1.80651       -2.34076        0.01034
C         -3.13996       -1.87499        0.01416
C         -3.43213       -0.52542        0.00816
C         -2.38671        0.44041        0.00005
C         -1.04038       -0.00994       -0.00114
C          0.02813        0.95124       -0.00329
C         -0.24592        2.30640       -0.01034
C         -1.59953        2.74340       -0.01302
C         -2.64080        1.85062       -0.00706
N          1.37146        0.42945        0.00162
C          2.48348        1.29559        0.02200
C          3.75653        0.81314        0.02483
H          5.02587       -0.95755       -0.00466
H          3.08041       -2.55667       -0.04935
H         -1.59351       -3.40860        0.01378
H         -3.94751       -2.60933        0.02102
H         -4.46403       -0.18257        0.00945
H          0.54127        3.05533       -0.01408
H         -1.78920        3.81783       -0.01998
H         -3.67362        2.19277       -0.00799
H          2.26462        2.37172        0.03630
H          4.60935        1.48813        0.04420
