30
614092.log	Energy: -499290.9997271
C          1.34420       -1.89997        0.72537
C         -0.00018       -1.75215        0.00324
C         -0.51827       -0.34277        0.01378
C          0.40016        0.71301        0.06532
C         -0.06745        2.04395        0.19726
C         -1.41154        2.32961        0.25141
C         -2.37562        1.28127        0.13926
C         -1.92358       -0.06903       -0.02945
N         -2.87649       -1.13095       -0.26664
O         -4.07973       -0.88380       -0.13334
O         -2.48233       -2.23653       -0.60807
N         -3.70225        1.62503        0.19742
C          1.84741        0.44209       -0.01567
C          2.76110        1.42742       -0.42218
C          4.12716        1.14060       -0.49179
C          4.59596       -0.13362       -0.16315
C          3.69546       -1.12789        0.23078
C          2.32668       -0.84882        0.30024
H          1.19263       -1.82578        1.82508
H          1.74314       -2.91906        0.54585
H         -0.72387       -2.46637        0.46164
H          0.08283       -2.09204       -1.05591
H          0.66184        2.85766        0.26983
H         -1.74874        3.35585        0.37693
H         -4.44489        0.92416        0.12654
H         -3.98429        2.58738        0.27363
H          2.40995        2.42155       -0.69361
H          4.82583        1.91396       -0.80593
H          5.66042       -0.35421       -0.21569
H          4.06380       -2.12125        0.48098
