30
615723.log	Energy: -486383.9678688
C          4.35761       -1.50191        0.00766
C          3.25417       -0.48172        0.00151
O          3.44367        0.71900       -0.00487
N          1.95973       -1.05035        0.01053
C          0.73150       -0.33453        0.00506
C          0.66955        1.04718       -0.00305
C         -0.58534        1.69746        0.01222
C         -1.79730        0.99619        0.02051
C         -1.75282       -0.43094        0.00045
C         -0.49899       -1.10476        0.00991
N         -0.41131       -2.49489        0.01517
C         -1.53143       -3.20481       -0.00453
C         -2.83580       -2.60600       -0.03932
C         -2.93889       -1.24163       -0.03826
N         -3.07664        1.65867       -0.03021
O         -0.74381        3.06794        0.04142
C          0.44676        3.88989       -0.05654
H          5.32705       -1.00459       -0.16688
H          4.24548       -2.26822       -0.77078
H          4.43371       -2.01521        0.97709
H          1.86789       -2.07796        0.01883
H          1.59402        1.63781       -0.01391
H         -1.43293       -4.29673        0.00072
H         -3.71275       -3.24772       -0.07236
H         -3.90992       -0.74148       -0.08422
H         -3.53993        1.62278        0.87583
H         -2.97196        2.64077       -0.28786
H          1.11099        3.70059        0.79258
H          0.95011        3.71294       -1.01221
H          0.02285        4.90104       -0.01135
