32
616039.log	Energy: -634948.0560672
C          4.22474        0.40215        0.56964
C          4.13451       -0.92750       -0.18819
C          2.76197       -1.58763        0.02749
C          1.65470       -0.59177       -0.07819
C          1.79208        0.74798       -0.04690
C          3.15188        1.38800        0.08577
C          0.66202        1.65588       -0.17335
C         -0.63940        1.29354       -0.21208
C         -1.72017        2.33404       -0.37819
C         -2.97036        1.98244        0.43835
C         -3.49146        0.58946        0.07094
C         -2.39590       -0.44064        0.06491
C         -1.10357       -0.08863       -0.10292
S          0.09399       -1.36122       -0.24853
C         -2.84532       -1.84978        0.23582
O         -4.00151       -2.18213        0.06708
H          4.10256        0.22186        1.65611
H          5.22900        0.84743        0.44300
H          4.29926       -0.75497       -1.26996
H          4.93690       -1.61329        0.14087
H          2.63136       -2.41267       -0.70539
H          2.72952       -2.06688        1.03162
H          3.10168        2.24970        0.78191
H          3.44177        1.80744       -0.90134
H          0.92329        2.71693       -0.24195
H         -1.35615        3.33992       -0.09156
H         -1.98030        2.40181       -1.45741
H         -2.73176        2.01925        1.52013
H         -3.75874        2.73985        0.27125
H         -3.96658        0.60025       -0.93489
H         -4.30050        0.28190        0.76719
H         -2.08740       -2.58721        0.55173
