28
616222.log	Energy: -511153.3550080
C          5.28941        0.30931        0.12265
O          4.27913       -0.71574       -0.03645
C          2.95707       -0.32516       -0.00984
C          2.06209       -1.38135       -0.02522
C          0.66789       -1.11069       -0.02751
C          0.19281        0.22918       -0.01237
C          1.15835        1.28377        0.00844
C          2.50737        1.02465        0.01129
C         -1.23178        0.45739       -0.00244
C         -2.10594       -0.63739        0.00683
C         -1.61420       -1.98074       -0.01894
C         -0.26718       -2.20242       -0.03619
O         -3.42830       -0.31934        0.03198
C         -4.40899       -1.38923       -0.04338
N         -1.79652        1.80900       -0.00052
O         -1.11230        2.73733       -0.41233
O         -2.93813        1.94614        0.40936
H          6.21355       -0.28261        0.07666
H          5.18601        0.79785        1.09564
H          5.24384        1.02374       -0.70414
H          2.42741       -2.40607       -0.03686
H          0.81273        2.32729        0.01232
H          3.22269        1.84411        0.02410
H         -2.31588       -2.81198       -0.01885
H          0.12865       -3.22180       -0.05477
H         -4.30844       -1.93885       -0.98232
H         -4.33416       -2.03580        0.83488
H         -5.34539       -0.80998       -0.02358
