24
616436.log	Energy: -497103.4460066
C         -3.42633       -1.48202        0.00023
C         -3.72536       -0.15010        0.00919
C         -2.63779        0.79946        0.00304
N         -2.54398        2.14799        0.00268
O         -1.19437        2.50350       -0.00210
C         -0.43064        1.34618       -0.00453
C         -1.29805        0.25411       -0.00235
C         -1.01084       -1.16004       -0.00447
C         -2.07387       -2.01416       -0.00532
C          0.43050       -1.34563       -0.00390
C          1.29796       -0.25366       -0.00438
C          1.01099        1.16066       -0.00477
C          2.07457        2.01426       -0.00152
C          3.42706        1.48145        0.00232
C          3.72519        0.14936        0.00417
C          2.63731       -0.79958        0.00123
N          2.54360       -2.14801        0.00468
O          1.19387       -2.50329        0.00146
H         -4.23287       -2.22044        0.00004
H         -4.74796        0.22497        0.01675
H         -1.94639       -3.09590       -0.00908
H          1.94815        3.09617       -0.00117
H          4.23430        2.21909        0.00481
H          4.74729       -0.22712        0.00861
