27
616425.log	Energy: -523661.3028847
C         -3.89420        1.72467        0.23949
O         -2.52737        1.98290       -0.16953
C         -1.62105        0.94956       -0.07115
C         -1.92954       -0.45967       -0.03999
C         -0.90694       -1.39298       -0.00777
C          0.42845       -0.93216       -0.01181
C          0.76202        0.43588       -0.04368
C         -0.30243        1.37278       -0.06283
C          2.16522        0.78565       -0.04332
C          3.11183       -0.18013       -0.01082
C          2.77723       -1.59703        0.02041
O          3.46900       -2.57573        0.04923
O          1.37384       -1.91952        0.01537
C          2.57769        2.23889       -0.09450
O          3.70339        2.58986        0.16718
O         -3.26632       -0.75495       -0.04025
C         -3.64739       -2.15787        0.00369
H         -3.92478        1.30334        1.24738
H         -4.37576        1.05916       -0.48719
H         -4.32749        2.73203        0.20918
H         -1.08263       -2.46710        0.01552
H         -0.09651        2.44520       -0.07765
H          4.18387        0.05707        0.00286
H          1.78665        2.94828       -0.38967
H         -3.28332       -2.67589       -0.88908
H         -3.28277       -2.62132        0.92529
H         -4.74298       -2.08674        0.00103
