26
616533.log	Energy: -528752.5752661
C          4.91216        0.13491        0.67124
N          3.54085       -0.40865        0.50099
C          2.58868       -0.01199        1.56181
C          3.11513       -0.67960       -0.79997
N          1.92409       -0.97766       -1.24535
C          0.66021       -0.80093       -0.70370
C         -0.19169       -1.86973       -0.49113
C         -1.56083       -1.69854       -0.14973
C         -2.14385       -0.45747        0.01699
C         -1.33460        0.71294       -0.16506
N         -1.54756        2.03281       -0.07161
O         -0.34928        2.66076       -0.34703
N          0.64079        1.76143       -0.61501
C          0.10554        0.53847       -0.52101
N         -3.56921       -0.36290        0.36945
O         -4.12126       -1.41553        0.66633
O         -4.10974        0.72332        0.34645
H          4.92537        1.23918        0.69109
H          5.58188       -0.20498       -0.13619
H          5.33585       -0.23574        1.62277
H          2.16851        0.99736        1.40528
H          1.76069       -0.74059        1.62522
H          3.09314       -0.02074        2.54425
H          3.93879       -0.81567       -1.53998
H          0.18607       -2.88815       -0.61729
H         -2.17517       -2.60279       -0.00716
