28
617148.log	Energy: -501026.9375233
C         -4.58146       -1.91671       -0.00024
C         -3.24617       -2.27203        0.21872
C         -2.25306       -1.29176        0.22889
C         -2.59149        0.05698        0.01666
C         -3.93444        0.41026       -0.20620
C         -4.92235       -0.57681       -0.21182
C         -1.56789        1.08937        0.02577
C         -1.57630        2.46616        0.02779
C         -0.20853        2.90237        0.04317
C          0.57895        1.77221        0.04789
O         -0.23813        0.61865        0.03819
C          2.00074        1.56336        0.06455
C          2.61337        0.37127        0.00188
C          2.11853       -1.02166       -0.10082
C          3.17061       -1.85587       -0.13312
C          4.42569       -1.05634       -0.04909
O          5.59185       -1.29632       -0.03251
O          4.02191        0.32989        0.03000
H         -5.35564       -2.68270       -0.00684
H         -2.98105       -3.31573        0.38268
H         -1.21269       -1.56433        0.40446
H         -4.20533        1.45128       -0.37771
H         -5.96216       -0.30064       -0.38368
H         -2.43087        3.11564        0.02405
H          0.11660        3.92571        0.04761
H          2.60829        2.47897        0.13017
H          1.05746       -1.23988       -0.14219
H          3.20331       -2.93083       -0.20809
