32
617218.log	Energy: -479306.1751375
C         -5.07400       -0.68649        0.98343
C         -4.44989       -0.51577       -0.40114
C         -3.03115       -0.02430       -0.29554
C         -1.97435       -0.89237       -0.25647
C         -0.62472       -0.40604       -0.15340
C          0.48766       -1.27750       -0.11023
C          1.81548       -0.81251       -0.01344
C          2.95004       -1.70104        0.03167
C          4.21812       -1.20899        0.12550
C          4.44942        0.20871        0.18061
C          3.40231        1.08071        0.14042
C          2.04829        0.59621        0.04278
C          0.93875        1.46669        0.00120
C         -0.39048        1.00095       -0.09410
C         -1.52602        1.88619       -0.13200
C         -2.79417        1.39715       -0.22693
O          1.24611        2.80863        0.06193
O          0.17799       -2.62062       -0.16971
H         -4.50507       -1.40054        1.59237
H         -6.10276       -1.05621        0.91266
H         -5.09687        0.26140        1.53428
H         -4.48459       -1.48092       -0.94894
H         -5.05854        0.18499       -1.00854
H         -2.11414       -1.97485       -0.29908
H          2.75930       -2.77355       -0.01116
H          5.08080       -1.87289        0.16108
H          5.47661        0.56149        0.25454
H          3.54639        2.16300        0.18042
H         -1.33638        2.95934       -0.08054
H         -3.65412        2.06536       -0.24982
H          0.42624        3.36966        0.02789
H          0.99856       -3.18008       -0.13704
