26
617431.log	Energy: -666551.2033185
C         -4.17167       -1.58823        0.36678
C         -4.75156       -0.32169        0.24732
C         -3.95962        0.82018        0.03500
C         -2.58929        0.64276       -0.04923
C         -1.98768       -0.62327        0.06621
C         -2.78079       -1.74971        0.27580
C         -0.50316       -0.61990       -0.06581
O          0.18898       -1.60905       -0.08867
C         -0.00852        0.78997       -0.19988
C          1.23582        1.27300       -0.21658
C          2.48680        0.50596       -0.08594
C          3.49036        0.99388        0.77032
C          4.69253        0.27994        0.87585
N          4.93873       -0.85770        0.17353
C          3.96459       -1.31701       -0.65218
C          2.72781       -0.66874       -0.80950
S         -1.38581        1.90229       -0.30857
H         -4.80396       -2.45997        0.53229
H         -5.83481       -0.21275        0.31968
H         -4.41712        1.80344       -0.05635
H         -2.31878       -2.73516        0.36647
H          1.40265        2.35842       -0.31381
H          3.33855        1.89924        1.35244
H          5.49738        0.61773        1.53922
H          4.19117       -2.24162       -1.19738
H          1.96117       -1.09254       -1.45961
