30
617650.log	Energy: -496970.6452960
C          5.46357       -0.79189        0.20611
O          4.58527        0.33114       -0.04065
C          3.22429        0.11106        0.03047
C          2.46678        1.26553       -0.15956
C          1.06057        1.17695       -0.14109
C          0.41465       -0.08233        0.01241
C          1.22803       -1.21074        0.28581
C          2.61082       -1.13404        0.28491
C         -1.03326       -0.13903       -0.06077
C         -1.76821        1.08025       -0.00159
C         -1.07824        2.35664       -0.10796
C          0.26851        2.39223       -0.21933
N         -3.13310        1.13042        0.11372
C         -3.79384       -0.07582        0.14800
N         -3.19835       -1.30583       -0.10454
C         -1.83501       -1.32541       -0.21120
N         -1.30159       -2.58866       -0.47853
N         -5.14759       -0.07568        0.44974
H          6.45332       -0.33116        0.08535
H          5.30358       -1.57351       -0.54175
H          5.32901       -1.16481        1.22543
H          2.96637        2.22113       -0.30766
H          0.76637       -2.16280        0.55427
H          3.20632       -2.01738        0.49479
H         -1.69583        3.25783       -0.10874
H          0.80206        3.33704       -0.34152
H         -0.43109       -2.63703       -0.99013
H         -1.96113       -3.32989       -0.69289
H         -5.68229       -0.91270        0.27036
H         -5.64646        0.80196        0.41763
