32
6177218.log	Energy: -432816.0180773
C         -7.05648       -0.14039        0.02751
C         -6.18921       -1.13152        0.48257
C         -4.81304       -0.90144        0.50127
C         -4.28458        0.31629        0.05253
C         -5.17026        1.31079       -0.38764
C         -6.54581        1.08148       -0.40433
C         -2.84381        0.60817        0.08762
C         -1.88872       -0.31425       -0.10093
C         -0.47498       -0.01234       -0.05035
C          0.46323       -0.95194       -0.23375
C          1.83714       -0.66607       -0.17220
C          3.01392       -0.39614       -0.13956
C          4.40945       -0.10533       -0.04906
C          5.35117       -1.11042       -0.28778
C          6.71578       -0.82839       -0.19145
C          7.14232        0.45754        0.14262
C          6.20712        1.46521        0.38095
C          4.84117        1.18959        0.28644
H         -8.12851       -0.31871        0.01560
H         -6.58400       -2.08280        0.83003
H         -4.16136       -1.68332        0.88320
H         -4.79344        2.27222       -0.72928
H         -7.22015        1.85928       -0.75352
H         -2.57935        1.64793        0.26700
H         -2.15914       -1.34826       -0.30787
H         -0.18321        1.01686        0.15165
H          0.18281       -1.98302       -0.43391
H          5.02861       -2.11594       -0.54762
H          7.44617       -1.61164       -0.37710
H          8.20476        0.67522        0.21752
H          6.54076        2.46642        0.64153
H          4.11953        1.98059        0.47599
