30
6251796.log	Energy: -476087.0086888
C         -4.74521       -1.53572        0.31274
C         -4.01110       -1.15784        1.44174
C         -2.83163       -0.42221        1.29816
C         -2.38873       -0.06524        0.01641
C         -3.12326       -0.44085       -1.11692
C         -4.30141       -1.17675       -0.96407
C         -1.13791        0.72090       -0.13955
C          0.04533        0.09481       -0.32574
N          1.28936        0.72727       -0.64625
C          2.48792       -0.00013       -0.23327
C          3.37077        0.51425        0.72744
C          4.54203       -0.18654        1.02215
C          4.82885       -1.38957        0.36946
C          3.94322       -1.89269       -0.58986
C          2.76939       -1.20448       -0.90160
O          1.33577        2.03799       -0.09800
C         -1.31277        2.13825       -0.08348
N         -1.49022        3.28146       -0.04869
H         -5.66471       -2.10710        0.42841
H         -4.35988       -1.43398        2.43590
H         -2.26174       -0.12012        2.17588
H         -2.78057       -0.15350       -2.10976
H         -4.87601       -1.46770       -1.84233
H          0.08597       -1.00682       -0.35821
H          3.13910        1.45535        1.23084
H          5.23352        0.20822        1.76661
H          5.74199       -1.93346        0.60469
H          4.17117       -2.82724       -1.10234
H          2.09423       -1.58870       -1.66405
H          1.38393        2.63293       -0.91865
