27
6274386.log	Energy: -441017.5530884
C         -4.95696        0.26487       -0.03349
C         -4.13927        1.13451        0.69726
C         -2.75793        0.93147        0.74311
C         -2.20961       -0.15235        0.04286
C         -3.02026       -1.04286       -0.67496
C         -4.39881       -0.82113       -0.71591
N         -0.75299       -0.40481        0.07555
C          0.07072        0.62029       -0.12400
C          1.53357        0.54970       -0.12069
C          2.22698       -0.63853        0.14399
C          3.62800       -0.61223        0.13124
C          4.36172        0.55342       -0.13659
C          3.64919        1.72412       -0.39809
C          2.25259        1.73354       -0.39218
O          4.37748       -1.73624        0.38373
O         -0.41755       -1.58714        0.26834
H         -6.03409        0.43179       -0.06609
H         -4.58095        1.97212        1.23755
H         -2.12342        1.59969        1.32633
H         -2.57195       -1.90096       -1.18334
H         -5.03937       -1.50116       -1.27811
H         -0.35364        1.61178       -0.32000
H          1.68122       -1.56196        0.35222
H          5.44716        0.52489       -0.13682
H          4.19308        2.64524       -0.61143
H          1.72334        2.65874       -0.60012
H          3.81041       -2.52840        0.55900
