31
6298747.log	Energy: -489323.9886347
C         -4.80403       -0.52796       -0.49492
C         -3.94423       -1.59938       -0.23462
C         -2.57386       -1.37810       -0.07254
C         -2.06168       -0.07544       -0.17480
C         -2.92590        1.00190       -0.43109
C         -4.29326        0.77114       -0.59222
C         -0.60995        0.16241       -0.02096
C          0.31716       -0.49414       -0.73491
C          1.77141       -0.29154       -0.64156
C          2.42414        0.39148       -1.67877
C          3.80702        0.56653       -1.66070
C          4.55959        0.04388       -0.60026
C          3.93845       -0.63915        0.44003
C          2.53469       -0.81448        0.43283
N          1.92169       -1.59180        1.44324
C         -0.26841        1.23115        0.95311
O         -0.39368        2.42793        0.87369
O          0.23598        0.67994        2.11901
H         -5.87116       -0.70372       -0.62047
H         -4.34243       -2.61008       -0.15524
H         -1.90708       -2.21301        0.13799
H         -2.52514        2.01595       -0.50241
H         -4.96323        1.60629       -0.79386
H          0.01413       -1.24311       -1.47987
H          1.83706        0.79428       -2.50555
H          4.30023        1.10468       -2.46597
H          5.64201        0.17594       -0.58964
H          4.53184       -1.04745        1.25395
H          2.45672       -1.70041        2.29497
H          0.95215       -1.35987        1.65070
H          0.45772        1.37044        2.79942
