28
6327680.log	Energy: -626811.5821214
C         -3.82028        0.32066        1.66302
Si        -3.30370       -0.55579        0.02105
C         -4.01078        0.58050       -1.37083
N         -1.41911       -0.21011       -0.06946
C         -0.76516        1.01816       -0.11407
C          0.59423        1.14629       -0.16934
N          1.45752       -0.01700       -0.14157
C          0.75448       -1.28414       -0.18965
C         -0.60965       -1.34278       -0.13401
Si         3.12104        0.07928        0.07277
C          4.12890       -1.43706        0.05297
C          3.95176        1.69848        0.14367
H         -4.89126        0.10867        1.80109
H         -3.68165        1.39943        1.69148
H         -3.27837       -0.12921        2.50185
H         -3.86023        1.65010       -1.24185
H         -3.59264        0.27716       -2.33704
H         -5.09464        0.39021       -1.39980
H         -1.41500        1.90601       -0.11271
H          1.07482        2.11587       -0.24029
H          1.36046       -2.18072       -0.26837
H         -1.14173       -2.31471       -0.15083
H          3.90667       -2.07723       -0.82481
H          5.21305       -1.22404        0.03354
H          3.93115       -2.06661        0.94510
H          4.15306        2.10545       -0.86699
H          3.34256        2.46130        0.66970
H          4.92108        1.63843        0.67302
