28
637883.log	Energy: -498525.1286408
C         -3.50695       -1.13523        0.41998
C         -4.90375       -1.13806        0.41843
C         -5.62380       -0.02084       -0.04035
C         -4.91126        1.14037       -0.39852
C         -3.51787        1.14775       -0.40089
C         -2.80450        0.00417        0.00912
C         -1.38111        0.00512        0.01387
C         -0.17719        0.01300       -0.01479
C          1.25112        0.01023       -0.01543
C          1.94885       -1.16908       -0.31501
C          3.34546       -1.17860       -0.31013
C          4.04484       -0.00015       -0.00349
C          3.35420        1.18589        0.29615
C          1.96019        1.18943        0.28984
N          5.51395       -0.00898        0.00545
O          6.07758       -1.06620       -0.25273
O          6.08853        1.03954        0.27103
N         -7.02980        0.01254        0.07509
H         -2.97073       -2.01908        0.75930
H         -5.42936       -2.02018        0.77638
H         -5.44529        2.04533       -0.67862
H         -2.98796        2.04877       -0.70131
H          1.40596       -2.08302       -0.55155
H          3.87240       -2.10375       -0.54487
H          3.88817        2.10597        0.53503
H          1.42467        2.10862        0.52247
H         -7.46809       -0.90174        0.02183
H         -7.47708        0.68343       -0.54167
