25
63970086.log	Energy: -300308.3189083
C          1.36128        2.12725        0.06180
C         -0.17986        2.26014       -0.00729
C         -0.74112        0.84623       -0.09298
C         -2.05417        0.60884       -0.19351
C         -2.70967       -0.73244       -0.32325
N         -4.04121       -0.71842        0.35800
C          0.40052       -0.08519       -0.04883
C          0.43225       -1.47388       -0.07491
C          1.67159       -2.13354       -0.01538
C          2.85978       -1.40923        0.06850
C          2.84220       -0.00353        0.09648
C          1.61867        0.64643        0.03991
H          1.76743        2.59421        0.97685
H          1.84957        2.63241       -0.79087
H         -0.57475        2.78164        0.88238
H         -0.48836        2.85542       -0.88488
H         -2.76411        1.44351       -0.21046
H         -2.89315       -0.93752       -1.40757
H         -2.04245       -1.55097        0.04321
H         -4.41774       -1.66030        0.40560
H         -3.94726       -0.38878        1.31448
H         -0.49372       -2.05022       -0.13627
H          1.69896       -3.22118       -0.03533
H          3.81408       -1.93165        0.11200
H          3.77135        0.55579        0.16169
