28
63970517.log	Energy: -324804.8270853
C         -2.22124        1.84044        0.24738
C         -0.78430        2.38652        0.06075
C          0.11664        1.18388       -0.19303
C          1.43061        1.31276       -0.41489
C          2.40754        0.20977       -0.66648
C          3.28652       -0.01991        0.57697
N          4.28472       -1.09131        0.28625
C         -0.73116       -0.02032       -0.13487
C         -0.40084       -1.36131       -0.28573
C         -1.40890       -2.33339       -0.17409
C         -2.72812       -1.96357        0.08342
C         -3.07701       -0.60990        0.23457
C         -2.08154        0.34872        0.12441
H         -2.90929        2.24352       -0.51711
H         -2.63982        2.12749        1.22818
H         -0.73644        3.09521       -0.78450
H         -0.45095        2.93900        0.95655
H          1.88343        2.30773       -0.41753
H          1.89789       -0.73635       -0.95425
H          3.05314        0.46414       -1.53528
H          3.84813        0.91068        0.81703
H          2.64256       -0.24090        1.45567
H          4.87846       -1.24690        1.09519
H          3.81974       -1.97127        0.08705
H          0.63059       -1.65585       -0.49521
H         -1.15250       -3.38421       -0.29226
H         -3.49982       -2.72668        0.16870
H         -4.10725       -0.32862        0.43353
