28
6397201.log	Energy: -426173.3249367
C          3.71469       -1.42706       -0.08059
C          2.61570       -2.23124       -0.05182
N          1.32371       -1.70404        0.07697
C          1.10981       -0.29395        0.04535
C         -0.14641        0.24958        0.13660
C         -0.34786        1.69924        0.01498
C         -1.59828        2.21032       -0.13401
C         -2.74638        1.33242       -0.16919
C         -2.58716        0.00788        0.09432
N         -1.30383       -0.61895        0.27734
N         -3.70469       -0.89064        0.28164
N         -3.64857       -2.17120       -0.36029
C          0.85334        2.53581        0.02360
C          2.09005        2.00452       -0.00203
C          2.30947        0.55872       -0.01401
C          3.55329        0.00369       -0.06741
H          4.71754       -1.84010       -0.11932
H          2.67769       -3.32304       -0.08388
H          0.53370       -2.29850       -0.16283
H         -1.77862        3.27696       -0.24149
H         -3.71221        1.76620       -0.40433
H         -1.26202       -1.15088        1.16224
H         -4.60214       -0.45098        0.00076
H         -2.95949       -2.20128       -1.12145
H         -3.33102       -2.85127        0.34069
H          0.69703        3.61482        0.03884
H          2.98000        2.63394       -0.00925
H          4.45150        0.61839       -0.10422
