19
642965.log	Energy: -240678.7624133
C         -0.98445       -1.41974        0.22862
C         -2.12263       -0.68279       -0.44266
C         -2.04532        0.64829       -0.29734
C         -0.84790        1.05368        0.51719
H         -1.09462        1.71441        1.35770
C         -0.13890       -0.31299        0.88336
H          0.05966       -0.48974        1.94660
C          1.07417        0.16106        0.07794
C          0.40653        1.48037       -0.29631
C          2.51930       -0.16686        0.24283
O          1.74001       -0.67462       -0.89806
H         -1.35310       -2.14844        0.96922
H         -0.38648       -1.98918       -0.51222
H         -2.87772       -1.23882       -0.97344
H         -2.71831        1.39262       -0.68563
H          0.23610        1.60129       -1.37501
H          0.91380        2.37797        0.07039
H          3.29089        0.54789       -0.03148
H          2.84490       -0.93705        0.93661
