24
6451338.log	Energy: -429392.2527367
C         -2.92978       -1.41776       -0.54122
C         -3.04645       -0.03824       -0.43387
C         -1.95660        0.71352        0.09162
C         -1.63641        2.09721       -0.14812
O         -0.37707        2.49842       -0.24355
C          0.61876        1.61928        0.12976
C          0.32898        0.58354        1.19319
C          2.93504       -0.90667       -1.18764
C          3.71566       -0.35331       -0.29708
C          2.24563        0.02359       -0.19943
C          1.38287       -0.53703        0.95121
O          0.60569       -1.76488        0.55179
C         -0.70598       -1.39460        0.32722
C         -1.74008       -2.12970       -0.21862
C         -0.90646       -0.02003        0.63079
C          1.74405        1.35028       -0.65678
H         -3.76771       -1.99364       -0.93947
H         -3.93922        0.47501       -0.77804
H         -2.32970        2.89827       -0.37288
H          0.27598        0.96320        2.22376
H          2.70891       -1.51865       -2.00800
H          4.63401       -0.15297        0.16507
H          1.94495       -0.88922        1.82578
H         -1.65157       -3.19078       -0.42838
