28
6508478.log	Energy: -501049.9857258
C         -4.19764       -1.80730        0.01470
C         -4.91943       -0.61266       -0.00457
C         -4.25815        0.62996       -0.01746
C         -2.87393        0.62268       -0.00944
C         -2.13583       -0.59218        0.00798
C         -2.78931       -1.81407        0.02103
C         -0.70142       -0.25073        0.00849
C          0.38577       -1.03805        0.01689
C          1.78471       -0.62592        0.01260
C          2.78179       -1.62831       -0.03416
C          4.13073       -1.29919       -0.04462
C          4.48550        0.06175       -0.00320
C          3.52550        1.08050        0.04593
C          2.17603        0.72517        0.05223
O          5.83507        0.31520       -0.01277
O         -0.59813        1.16302       -0.00536
C         -1.91010        1.74648       -0.01744
O         -1.98599        2.93797       -0.02840
H         -4.73126       -2.75959        0.02524
H         -6.00934       -0.63691       -0.01008
H         -4.81756        1.56628       -0.03283
H         -2.24053       -2.75310        0.03469
H          0.21995       -2.12381        0.02654
H          2.49112       -2.67913       -0.06380
H          4.90945       -2.05747       -0.08247
H          3.81559        2.12610        0.07824
H          1.41663        1.51568        0.08945
H          6.03301        1.28375        0.01358
