25
6537126.log	Energy: -406505.1347257
C          4.34772       -0.58599       -0.09008
C          3.50271       -1.48752        0.56468
C          2.12888       -1.24201        0.62900
C          1.59514       -0.08426        0.03923
C          2.44780        0.82462       -0.60942
C          3.81864        0.56863       -0.67558
C          0.14422        0.17861        0.10144
C         -0.76182       -0.75814       -0.23282
C         -2.19859       -0.63020       -0.18757
C         -3.23316       -1.48133       -0.50617
C         -4.46021       -0.77543       -0.24324
C         -4.11307        0.46547        0.22207
O         -2.72397        0.59948        0.27307
C         -0.26658        1.55296        0.55761
O          0.18053        2.56508        0.06976
H          5.41743       -0.78117       -0.14120
H          3.91528       -2.38320        1.02614
H          1.47566       -1.94304        1.14527
H          2.03141        1.73536       -1.05166
H          4.47630        1.27339       -1.18290
H         -0.42436       -1.74020       -0.59868
H         -3.16539       -2.48482       -0.88097
H         -5.44651       -1.17178       -0.39469
H         -4.62922        1.34056        0.54981
H         -1.01314        1.56588        1.37134
