25
66573160.log	Energy: -437862.0507541
C          2.44168        1.81500        0.01034
C          3.81129        1.08633        0.00401
C          3.56920       -0.42573       -0.00311
O          4.42558       -1.26704       -0.00601
C          2.08346       -0.61358       -0.00455
N          1.24262       -1.62232       -0.00947
C         -0.06625       -1.00367       -0.00411
C         -1.26585       -1.62673       -0.00150
C         -2.43833       -0.78629        0.01381
C         -3.77897       -1.05462        0.01179
N         -4.52590        0.15851       -0.11306
N         -3.60605        1.26056        0.09458
C         -2.27745        0.69242        0.01383
C         -1.08540        1.33416        0.00142
C          0.09216        0.50760        0.00147
C          1.43044        0.73086        0.00268
H          2.33818        2.46199        0.90241
H          2.33746        2.47691       -0.87044
H          4.41931        1.35944        0.88571
H          4.41690        1.36853       -0.87637
H         -1.37301       -2.71106       -0.00313
H         -4.29470       -2.00577        0.02162
H         -5.34697        0.25694        0.50164
H         -3.79649        2.00509       -0.59692
H         -0.97589        2.41248        0.00282
