17
66655928.log	Energy: -387631.1909792
C          0.23534        2.42157        0.09243
C          1.47827        1.80010        0.07157
N          1.49594        0.46480       -0.21456
C          0.34658       -0.41156       -0.09593
C          0.80402       -1.68090        0.05173
N          2.25903       -1.69346        0.08915
O          2.67344       -0.33614       -0.13976
C         -0.92102        0.27499       -0.04542
C         -0.95528        1.65976        0.03019
N         -2.14946       -0.50900       -0.01493
O         -3.20634        0.10402        0.03038
O         -2.05414       -1.72671       -0.03040
H          0.17337        3.50669        0.14871
H          2.42908        2.33837        0.16037
H          0.25368       -2.61329        0.07536
H          2.60085       -1.95618        1.02736
H         -1.92662        2.17486        0.06156
