24
66714045.log	Energy: -427114.7862397
C          4.40991       -0.11974       -0.00662
C          3.85153       -1.42450       -0.14854
C          2.49134       -1.59905       -0.17490
C          1.61495       -0.47117       -0.06807
C          0.19632       -0.62599       -0.09620
C         -0.63553        0.47385       -0.00537
C         -0.06706        1.78412        0.13468
C          1.29204        1.95189        0.17037
C          2.17184        0.82764        0.06707
C          3.59447        0.97887        0.09735
C         -2.07907        0.33729       -0.05402
C         -3.05427        1.24166       -0.26738
N         -4.38711        0.57072       -0.20547
N         -4.27768       -0.63751        0.02201
C         -2.79589       -1.01904        0.15579
O         -2.38902       -2.11183        0.36366
H          5.49439       -0.01520        0.01665
H          4.52622       -2.27596       -0.23227
H          2.05418       -2.59202       -0.27845
H         -0.21444       -1.63613       -0.18895
H         -0.73282        2.64211        0.21765
H          1.72740        2.94558        0.27841
H          4.01183        1.97915        0.20447
H         -3.04448        2.29959       -0.46751
