20
66793.log	Energy: -378440.3299403
C          3.93828       -0.39846        0.28955
O          2.71254       -0.94741       -0.24924
C          1.57143       -0.17138       -0.11313
C          0.39110       -0.89216       -0.06074
C         -0.84916       -0.20663       -0.01401
C         -0.87645        1.21476       -0.00054
C          0.37234        1.92231       -0.05071
C          1.56878        1.24849       -0.10823
N         -2.04461        1.93622        0.08003
N         -2.05430       -1.02004        0.02186
O         -1.94300       -2.23423        0.02166
O         -3.14474       -0.44446        0.04980
H          4.62184       -1.25406        0.20190
H          3.80869       -0.10939        1.33546
H          4.28195        0.43565       -0.32770
H          0.40532       -1.98907       -0.06354
H          0.35925        3.01143       -0.04550
H          2.51184        1.79351       -0.15618
H         -2.95242        1.46716        0.07835
H         -2.04037        2.93866        0.03311
