28
66860.log	Energy: -428601.1017845
C          3.09111        2.20429        0.74760
C          2.63657        0.83853        0.34707
C          3.53857       -0.09285       -0.23908
C          3.08896       -1.38532       -0.57952
C          1.77047       -1.76188       -0.34515
C          0.86843       -0.83381        0.20643
C          1.31132        0.45753        0.55576
N         -0.44553       -1.29872        0.49480
C         -1.54067       -0.68414        0.17761
C         -1.68315        0.57374       -0.60124
C         -2.87227        1.15353       -0.79238
C         -4.13164        0.57695       -0.23027
O         -5.19567        1.14764       -0.33240
C         -3.99391       -0.74003        0.45072
C         -2.80541       -1.32451        0.63506
N          4.91230        0.22412       -0.39633
H          2.31624        2.75850        1.29531
H          3.36155        2.81462       -0.12448
H          3.96561        2.15558        1.41491
H          3.78239       -2.10601       -1.00991
H          1.43252       -2.77029       -0.58724
H          0.61656        1.15580        1.02266
H         -0.76365        0.98865       -1.02389
H         -3.00219        2.07250       -1.36688
H         -4.93189       -1.18625        0.78738
H         -2.69599       -2.29175        1.13781
H          5.12991        1.20386       -0.51043
H          5.41673       -0.34633       -1.06112
