26
66883578.log	Energy: -427891.9618263
C          3.31725        1.19989       -0.00483
C          1.97703        1.61032       -0.02456
C          0.97992        0.64783       -0.01047
C          1.32232       -0.74732        0.01505
C          2.63744       -1.16733        0.03441
C          3.64959       -0.16939        0.01983
N          5.00604       -0.56592       -0.05566
C          0.06656       -1.52974        0.01574
C         -0.97854       -0.65912       -0.00554
C         -0.48707        0.74491       -0.01908
C         -1.33265        1.79516       -0.03098
C         -2.76597        1.57235       -0.01476
C         -3.29986        0.31907        0.01263
C         -2.42265       -0.92421       -0.02926
O         -2.91953       -2.03032       -0.10834
N         -4.66780        0.06398        0.17333
H          4.10343        1.95055       -0.02336
H          1.73178        2.67077       -0.04863
H          2.89453       -2.22187        0.04443
H          5.69201        0.11645        0.23198
H          5.22491       -1.49261        0.27917
H          0.03087       -2.60744        0.02872
H         -0.98145        2.82551       -0.04483
H         -3.40130        2.45539       -0.00273
H         -4.97603       -0.87745       -0.05037
H         -5.31048        0.78227       -0.12044
