29
66926142.log	Energy: -439363.9601325
C          3.55212       -0.96594       -0.80539
C          2.24197       -1.73406       -0.58659
C          1.59920       -1.36013        0.75752
N          1.36891        0.11233        0.85208
C          2.66743        0.84895        0.72800
C          3.35497        0.54390       -0.61325
C          0.21605        0.72060        0.36003
C          0.13572        2.07989        0.13964
C         -1.07869        2.77253       -0.19332
C         -2.27895        2.15819       -0.35802
C         -2.35825        0.74038       -0.19583
N         -3.34011       -0.10884       -0.30656
C         -2.80969       -1.45794       -0.03002
O         -3.38489       -2.49298       -0.03061
N         -1.32058       -1.30742        0.27106
C         -1.03720       -0.05317        0.18720
H          3.94140       -1.16695       -1.82182
H          4.32599       -1.33683       -0.10548
H          1.53333       -1.52764       -1.41294
H          2.42615       -2.82520       -0.61862
H          2.27125       -1.63782        1.60270
H          0.66171       -1.93630        0.92649
H          3.30893        0.52982        1.58064
H          2.50623        1.94355        0.85013
H          4.32977        1.06516       -0.65901
H          2.75071        0.95322       -1.44737
H          1.02958        2.70000        0.22705
H         -0.99787        3.85792       -0.31985
H         -3.19359        2.69316       -0.61299
