28
66985905.log	Energy: -498625.2297501
C         -4.26470       -0.46827        0.29515
C         -3.42777       -1.61416        0.43541
C         -2.06714       -1.50293        0.31102
C         -1.45065       -0.24071        0.02132
C         -2.28460        0.91311       -0.02217
C         -3.70636        0.76521        0.08606
C         -1.70382        2.21260       -0.14300
C         -0.34069        2.35987       -0.17183
C          0.49645        1.21170       -0.16026
C         -0.03576       -0.07134       -0.16233
C          0.91224       -1.20345       -0.37098
C          2.22032       -1.08298        0.03807
C          2.75201        0.21860        0.48144
O          3.71387        0.37268        1.19165
C          1.97707        1.41846       -0.13071
O          2.53325        2.39862       -0.55032
N          3.12537       -2.19973       -0.07446
N          0.43774       -2.38969       -0.94222
H         -5.34455       -0.59223        0.37549
H         -3.89025       -2.57582        0.65839
H         -1.43687       -2.37896        0.48244
H         -4.32906        1.65634        0.00702
H         -2.36067        3.08199       -0.19078
H          0.13029        3.34631       -0.22081
H          4.09536       -1.88420       -0.03243
H          2.98436       -2.84650        0.70238
H         -0.37572       -2.32057       -1.53884
H          1.14883       -3.02509       -1.29997
