26
67010332.log	Energy: -427859.3510333
C         -3.96740       -0.66905        0.85697
C         -4.12433       -0.41704       -0.62060
C         -2.81207       -1.00010       -0.09321
C         -1.59466       -0.19915       -0.06570
C         -0.30004       -0.58232       -0.05425
C          0.34578       -1.88121       -0.06868
C          1.69291       -1.99777       -0.04508
C          2.50180       -0.79501       -0.00633
C          1.96774        0.52269        0.00709
C          0.54759        0.69721       -0.01468
N         -0.18976        1.78585       -0.00334
C         -1.59367        1.36376       -0.03506
O         -2.53859        2.09379       -0.03846
C          3.05932        1.43772        0.04559
C          4.22923        0.68375        0.05579
N          3.88476       -0.68435        0.02478
H         -4.50323       -1.48498        1.33550
H         -3.87314        0.18335        1.53110
H         -4.77649       -1.04743       -1.21985
H         -4.14154        0.61591       -0.98023
H         -2.62258       -2.06578       -0.29652
H         -0.30593       -2.75595       -0.09817
H          2.19393       -2.96302       -0.05393
H          2.96922        2.50956        0.06294
H          5.25224        1.01103        0.08252
H          4.53811       -1.44436        0.02303
