22
67040938.log	Energy: -345803.2774428
C          3.40188       -1.88297       -0.01875
C          2.65167       -0.91952        0.50961
C          2.20941        0.29860       -0.25226
C          0.76530        0.56660       -0.12166
C         -0.32049       -0.22951       -0.08625
C         -0.52820       -1.66097       -0.14582
C         -1.78177       -2.16036       -0.08841
C         -2.95433       -1.29234        0.03341
C         -2.85808        0.05289        0.09549
C         -1.54556        0.67529        0.04002
N         -1.22788        1.94788        0.08032
C          0.23978        2.03322       -0.01147
O          0.88880        3.03313        0.00158
H          3.74993       -1.88913       -1.04161
H          3.73652       -2.74503        0.54135
H          2.31746       -0.94814        1.54907
H          2.80048        1.18112        0.10184
H          2.46319        0.21505       -1.33709
H          0.35757       -2.29250       -0.23733
H         -1.97026       -3.23323       -0.13194
H         -3.92687       -1.78944        0.07192
H         -3.72092        0.71553        0.18549
