29
6706.log	Energy: -488594.0685655
C         -2.12004       -2.84151       -0.54330
N         -2.90736       -1.60240       -0.42674
C         -2.40328       -0.35629       -0.09416
C         -3.38276        0.70427       -0.10274
C         -2.99217        2.01925       -0.05465
C         -1.61729        2.35365       -0.00704
C         -0.67401        1.34805        0.07231
C         -1.04232       -0.02544        0.12204
C         -0.01560       -1.00126        0.52424
O         -0.25733       -2.02331        1.14344
C          1.40771       -0.66355        0.18278
C          2.36124       -1.68191        0.09174
C          3.68951       -1.36735       -0.21982
C          4.06621       -0.03757       -0.42545
C          3.11734        0.98597       -0.32010
C          1.78687        0.67222       -0.02062
C          0.77389        1.76220        0.09756
O          1.09963        2.92855        0.18342
H         -1.23154       -2.68430       -1.17974
H         -2.73581       -3.62575       -1.01268
H         -1.76178       -3.21537        0.44204
H         -3.90675       -1.75410       -0.30604
H         -4.43936        0.45010       -0.15976
H         -3.73392        2.81995       -0.06145
H         -1.30740        3.40116       -0.02204
H          2.06209       -2.71632        0.27635
H          4.43094       -2.16288       -0.29407
H          5.10178        0.20629       -0.66235
H          3.40316        2.03168       -0.46468
