29
67149829.log	Energy: -547633.1269195
C          2.75908       -1.13732        0.30607
C          4.09989       -0.67176       -0.27403
C          4.30729        0.82636       -0.11059
C          3.28478        1.70427       -0.04684
C          1.92637        1.19497       -0.03971
C          1.65619       -0.12476        0.10917
C          0.29722       -0.66019        0.16197
C         -0.77150       -0.08041       -0.41137
C         -2.10200       -0.68309       -0.28993
O         -2.46972       -1.70914        0.23107
O         -3.01613        0.14230       -0.95482
C         -4.40285       -0.22354       -0.87977
C         -5.02783        0.46277        0.31671
O         -4.54165        0.99829        1.27682
O         -6.39780        0.39624        0.17140
O          5.59638        1.25923       -0.06516
O          5.21922       -1.33014        0.33206
H          2.48719       -2.11233       -0.15067
H          2.86288       -1.34094        1.39514
H          4.20818       -0.95869       -1.35091
H          3.44804        2.77752        0.01273
H          1.12945        1.93558       -0.13963
H          0.17861       -1.60580        0.71350
H         -0.72444        0.84992       -0.98300
H         -4.82568        0.14723       -1.83624
H         -4.52452       -1.32764       -0.80690
H         -6.88843        0.81359        0.92863
H          6.23590        0.47925       -0.07493
H          5.13063       -1.35580        1.31119
