23
67204309.log	Energy: -354162.3141554
C         -3.28507        0.56179       -0.30071
C         -2.09818        1.43819        0.12577
C         -0.79051        0.70975        0.02458
C         -0.74284       -0.65763       -0.02601
N         -1.89700       -1.47172       -0.18011
C         -3.16803       -0.85166        0.29073
N          0.47194       -1.42758       -0.02253
C          1.57647       -0.76375       -0.01719
C          1.69362        0.78623       -0.00145
N          2.95554        1.12471        0.01409
C          3.69308       -0.15685        0.00812
N          2.94323       -1.23940       -0.00468
C          0.44287        1.56762        0.00218
H         -3.31645        0.49323       -1.40850
H         -4.23851        1.02558        0.01034
H         -2.08066        2.35791       -0.49460
H         -2.23685        1.78237        1.17358
H         -1.77167       -2.44446        0.11570
H         -3.23177       -0.81295        1.40045
H         -4.00384       -1.49292       -0.06844
H          4.77984       -0.12113        0.01727
H          0.41758        2.23399       -0.89889
H          0.43783        2.27423        0.86956
