16
67236307.log	Energy: -273117.9247194
C          1.59759       -0.83917       -0.71362
C          1.60139        0.82792       -0.71684
C          0.59457        1.08180        0.35924
C         -0.75996        0.75945        0.13418
C         -0.76493       -0.75603        0.13829
C          0.58892       -1.07979        0.36330
N          0.87826        0.00291        1.37522
O         -1.73586       -1.58648       -0.25562
O         -1.72870        1.59443       -0.24995
H          2.60740       -1.19513       -0.48174
H          1.31004       -1.23481       -1.69448
H          2.61268        1.18216       -0.48633
H          1.31633        1.21977       -1.69981
H          1.84883        0.00271        1.69576
H         -2.64088       -1.21273       -0.10699
H         -2.63118        1.18909       -0.19561
