18
67371279.log	Energy: -297562.4113586
C         -2.83756       -0.74794       -0.05473
C         -2.59663        0.52673       -0.57880
C         -1.31896        1.08396       -0.50220
C         -0.27416        0.35886        0.09663
C         -0.51961       -0.91511        0.63312
C         -1.80144       -1.46463        0.55256
C          1.07501        0.95154        0.16096
C          2.28137        0.35775       -0.00388
C          2.45639       -1.01242       -0.30442
N          2.62597       -2.13239       -0.54859
O          0.97852        2.29647        0.41271
H         -3.83494       -1.18298       -0.11880
H         -3.40581        1.08557       -1.04734
H         -1.12471        2.08114       -0.90118
H          0.28319       -1.47748        1.11338
H         -1.99076       -2.45650        0.96272
H          3.21324        0.92572        0.07841
H          1.86334        2.74714        0.45584
