27
67432473.log	Energy: -482993.7167321
C         -1.19950        2.53083        0.76449
N         -0.21323        3.33690       -0.03991
N          0.71037        2.63858       -0.47514
C          0.56302        1.22748       -0.07042
C          1.49550        0.26582       -0.23463
C          2.79012        0.54193       -0.86186
C          3.84884       -0.25918       -0.62911
C          3.72582       -1.42837        0.23833
C          2.52948       -1.82122        0.71268
C          1.29203       -1.09943        0.33695
N          0.17297       -1.72762        0.52284
C         -1.11913       -1.27425        0.14168
C         -1.58874        0.08260        0.21521
N         -0.68642        1.11095        0.67997
C         -2.93153        0.33605       -0.08871
C         -3.77198       -0.71407       -0.46479
C         -3.23674       -2.00622       -0.54809
N         -1.94224       -2.28521       -0.25593
H         -2.23406        2.68315        0.38675
H         -1.16321        2.85189        1.83397
H          2.85466        1.43148       -1.49295
H          4.82597       -0.06432       -1.07041
H          4.64294       -1.96718        0.48032
H          2.39886       -2.69923        1.35017
H         -3.33072        1.35217       -0.03524
H         -4.81991       -0.53001       -0.69172
H         -3.84777       -2.86506       -0.85423
