22
67441719.log	Energy: -366606.5625224
C          0.71802       -1.14227        0.47418
C          1.53821        0.04586        0.01863
C          0.74848        1.09936       -0.26171
C         -0.66769        0.74207       -0.03292
C         -1.72658        1.56107       -0.20480
N         -3.08989        1.29222        0.07169
C         -3.60752        0.10570        0.05894
C         -2.98781       -1.19226       -0.23786
C         -1.69013       -1.51072       -0.07032
N         -0.70580       -0.63084        0.46981
C          3.00873       -0.09638       -0.11278
O          3.55618       -1.08939       -0.56319
N          3.76905        0.98542        0.32434
H          0.96624       -1.43973        1.51742
H          0.88317       -2.02503       -0.17892
H          1.03600        2.07661       -0.61785
H         -1.58268        2.59794       -0.54141
H         -4.68594        0.05030        0.30274
H         -3.68430       -1.96041       -0.58113
H         -1.34505       -2.53952       -0.25361
H          3.37133        1.81056        0.73379
H          4.77606        0.94220        0.27565
