29
67463371.log	Energy: -439184.4024634
C         -3.00535       -1.11320        1.03184
C         -2.44154        0.25922        1.44733
N         -1.80022        1.04184        0.33638
C         -2.63335        1.02010       -0.91400
C         -3.19496       -0.36240       -1.29657
N         -3.87703       -1.05897       -0.17243
N         -0.47209        0.64566        0.09090
C          0.57739        1.55836        0.33867
C          1.75303        0.90367        0.08225
C          3.18620        0.86231        0.02296
C          3.98655        0.03182        0.85613
C          3.62891       -1.32078        0.45288
C          2.66148       -1.15170       -0.57842
C          1.37502       -0.54842       -0.35190
C          0.00980       -0.62521       -0.31495
O          3.31686        0.03692       -1.20459
H         -3.58611       -1.55793        1.86899
H         -2.17558       -1.82787        0.82619
H         -3.25289        0.91815        1.83326
H         -1.71534        0.14342        2.28143
H         -2.04145        1.44372       -1.75587
H         -3.46000        1.74230       -0.72297
H         -2.37911       -1.02262       -1.67065
H         -3.91381       -0.26445       -2.13914
H         -4.75073       -0.57010        0.05623
H          0.38630        2.57689        0.63604
H          4.64733        0.30129        1.65189
H          3.98354       -2.22480        0.90222
H         -0.65053       -1.43569       -0.57218
