23
67620531.log	Energy: -542951.7326796
C          5.01662       -0.95773        0.20701
O          3.81463       -0.13573        0.18186
C          2.63686       -0.78716       -0.06358
O          2.57464       -1.98475       -0.24182
C          1.51010        0.15171       -0.05573
C          0.19932       -0.17506       -0.03986
C         -0.53187       -1.42227       -0.03818
C         -1.88021       -1.40958       -0.01100
C         -2.62722       -0.14663        0.01408
C         -2.04649        1.07445        0.00856
C         -0.58650        1.14347       -0.02015
N          0.19350        2.18158       -0.02766
C          1.61522        1.68258       -0.06305
O          2.55238        2.40643       -0.10371
N         -4.12047       -0.25408        0.04668
O         -4.59586       -1.37268        0.01156
O         -4.74686        0.78713        0.10648
H          5.79334       -0.21756        0.43387
H          5.16489       -1.42098       -0.77350
H          4.92891       -1.71704        0.99042
H          0.06099       -2.34795       -0.06478
H         -2.47481       -2.33425       -0.00835
H         -2.61098        2.01954        0.02573
