35
67647726.log	Energy: -386835.4694275
C          3.14260       -2.34848       -0.31720
C          2.37805       -1.20752       -0.99121
C          1.36822       -0.63632       -0.07297
C          1.34250        0.65922        0.52270
C          0.07733        0.70131        1.24279
C         -1.19497        0.60077        0.57553
C         -1.17070       -0.72466       -0.02870
C          0.11650       -1.24879        0.35277
O          0.08865       -0.70229        1.72191
C         -2.19737       -1.34028       -0.89499
C         -3.16758       -2.18842       -0.07096
C         -2.24621        1.63481        0.45453
C         -2.50987        2.03022       -0.99852
C          2.31707        1.76130        0.36102
C          1.88715        2.72660       -0.74499
H          3.65560       -2.00610        0.59022
H          3.89405       -2.77567       -0.98865
H          2.46354       -3.15611       -0.01250
H          3.08961       -0.42624       -1.33311
H          1.87653       -1.58505       -1.90987
H         -2.76008       -0.54768       -1.44542
H         -1.71236       -1.97175       -1.67106
H         -3.69968       -1.58287        0.67266
H         -3.91374       -2.67229       -0.70941
H         -2.63616       -2.97674        0.47977
H         -3.18550        1.26071        0.92213
H         -1.96275        2.53489        1.04424
H         -2.79276        1.15604       -1.60631
H         -3.32561        2.75887       -1.06625
H         -1.62256        2.47932       -1.45996
H          2.41323        2.31129        1.32460
H          3.33160        1.36243        0.14775
H          0.89363        3.14611       -0.54125
H          2.58860        3.56356       -0.83274
H          1.83916        2.22698       -1.71902
