18
67673891.log	Energy: -320751.6243858
C         -1.68124       -1.41244       -0.00672
C         -2.79339       -0.40678        0.13294
C         -2.59068        0.92125        0.11270
C         -1.23848        1.46072        0.02606
C         -0.20682        0.60078       -0.11633
N         -0.38332       -0.78959       -0.41547
C          0.85187       -1.53141       -0.00983
C          1.95571       -0.48188        0.06809
O          3.12416       -0.68635        0.20801
C          1.25213        0.91216       -0.05131
O          1.79514        1.97806       -0.06425
H         -1.59911       -2.00445        0.93466
H         -1.92895       -2.13477       -0.82466
H         -3.78261       -0.84297        0.26264
H         -3.40903        1.63587        0.19140
H         -1.08955        2.53570        0.10483
H          1.07774       -2.28892       -0.79490
H          0.76573       -2.08138        0.95059
