21
67717966.log	Energy: -693446.0482351
C          3.72472       -1.69881       -0.01128
C          4.20341       -0.40111       -0.00306
S          2.90266        0.70674        0.01103
C          1.75392       -0.61911        0.00176
N          2.34291       -1.81969       -0.00842
C          0.33107       -0.37438        0.00246
C         -0.18449        0.88394       -0.00102
C         -1.65318        1.22980       -0.00153
N         -1.76027        2.55030       -0.00350
N         -0.44462        3.06948       -0.00466
N          0.45728        2.17954       -0.00338
C         -2.57737        0.11812       -0.00024
N         -3.87696        0.00383       -0.00407
C         -4.12709       -1.46075       -0.00085
N         -3.04025       -2.20161        0.00464
C         -1.92997       -1.28446        0.00496
C         -0.60910       -1.51759        0.00526
H          4.32451       -2.60685       -0.02050
H          5.23780       -0.09112       -0.00370
H         -5.15975       -1.80441       -0.00358
H         -0.18323       -2.53242        0.00832
