26
67749670.log	Energy: -427894.4318058
C         -3.60223        0.94006        0.02799
C         -2.46601        1.75147        0.02741
C         -1.20852        1.15842        0.01301
C         -1.08317       -0.27772       -0.00504
C         -2.19674       -1.09348       -0.00377
C         -3.47395       -0.46887        0.00687
N         -4.62533       -1.26787       -0.06994
C          0.35636       -0.59190       -0.01546
C          1.03138       -1.76205       -0.02686
C          2.47759       -1.76052       -0.02201
C          3.19098       -0.59601        0.00728
C          2.50435        0.76897       -0.02234
O          3.17498        1.78320       -0.08414
C          1.05019        0.71769       -0.00489
C          0.13431        1.73506        0.01150
N          4.57553       -0.54402        0.14214
H         -4.58741        1.39645        0.03039
H         -2.56887        2.83656        0.03966
H         -2.10349       -2.17340       -0.02420
H         -4.54682       -2.24386        0.16490
H         -5.50996       -0.85678        0.18055
H          0.52364       -2.72566       -0.03745
H          2.97587       -2.72636       -0.02186
H          0.33670        2.79484        0.02255
H          5.02604        0.34508       -0.04696
H          5.11592       -1.35598       -0.10210
