30
677567.log	Energy: -473730.6705850
C         -5.80342       -0.27808        0.16865
C         -5.20978        0.92658        0.56161
C         -3.82466        1.08767        0.48575
C         -3.02872        0.03255        0.00852
C         -3.62216       -1.18123       -0.37672
C         -5.00849       -1.33086       -0.29570
C         -1.57472        0.17270       -0.08764
N         -0.65192       -0.81386        0.06348
C          0.60175       -0.17209       -0.13830
N          0.45194        1.17357       -0.40225
N         -0.90323        1.37909       -0.36207
N          1.77031       -0.93546       -0.11680
C          3.09762       -0.42898       -0.00083
C          3.43777        0.92015       -0.19339
C          4.77783        1.30353       -0.10817
C          5.77730        0.36658        0.16498
C          5.43305       -0.97620        0.35602
C          4.10288       -1.38407        0.27857
H         -6.88464       -0.39645        0.22815
H         -5.83074        1.74177        0.93174
H         -3.37157        2.02119        0.81336
H         -2.99407       -2.00350       -0.72951
H         -5.46960       -2.27222       -0.59393
H         -1.27502        2.29489       -0.56567
H          1.62284       -1.91773        0.14707
H          2.67859        1.67149       -0.41579
H          5.04142        2.35090       -0.25740
H          6.81650        0.67796        0.22856
H          6.20932       -1.71102        0.56781
H          3.84977       -2.43013        0.42898
