19
67764802.log	Energy: -287462.3043878
C         -4.80342        0.68913       -0.43905
C         -3.84212        0.04946       -0.09096
O         -2.78864       -0.65136        0.29035
C         -1.54076       -0.03085       -0.01161
C         -0.47812       -0.73601        0.39012
C          0.90575       -0.29345        0.18071
C          1.88655       -1.24464       -0.15263
C          3.20858       -0.84431       -0.35411
C          3.56602        0.50165       -0.21935
C          2.59480        1.44827        0.11898
C          1.26862        1.05681        0.31980
H         -5.66194        1.19167       -0.71213
H         -1.58681        0.91561       -0.52814
H         -0.60655       -1.70038        0.89306
H          1.61312       -2.29311       -0.25992
H          3.96460       -1.58336       -0.61609
H          4.59774        0.81008       -0.37556
H          2.87169        2.49596        0.22877
H          0.52187        1.79804        0.59588
