28
677873.log	Energy: -475430.7479809
C         -5.41093       -0.69921        0.00026
C         -3.97213       -0.29467       -0.00477
C         -2.98166       -1.28370       -0.00523
C         -1.64635       -0.87782       -0.00217
C         -1.31822        0.53068        0.00205
C         -2.30697        1.51324        0.00342
C         -3.63051        1.07918       -0.00050
N          0.09358        0.57882        0.00774
C          0.54277       -0.81826        0.00279
N         -0.45801       -1.67835       -0.00173
C          2.00978       -0.77299        0.00203
C          2.95255       -1.77855        0.00335
C          4.31703       -1.40488       -0.00020
C          4.69696       -0.06836       -0.00275
C          3.73081        0.96459       -0.00237
C          2.39930        0.60882       -0.00065
C          1.19342        1.51204        0.00011
O          1.08565        2.70551       -0.00372
H         -5.62693       -1.43742       -0.78538
H         -6.09298        0.14557       -0.16032
H         -5.68741       -1.15811        0.96134
H         -3.23027       -2.34397       -0.00711
H         -2.04915        2.57070        0.00778
H         -4.42922        1.82141        0.00110
H          2.65895       -2.82913        0.00658
H          5.07704       -2.18863       -0.00079
H          5.75430        0.19922       -0.00438
H          4.03643        2.01233       -0.00332
