26
67785011.log	Energy: -427498.6127948
C          3.38426        1.37449       -0.47977
C          3.37233       -0.10870       -0.77222
O          1.97992       -0.57893       -0.83677
C          1.33374       -0.82703        0.32436
O          1.82480       -0.76977        1.42776
C         -0.12449       -1.24551        0.03106
O         -0.38272       -2.21349       -0.62960
C         -1.20309       -0.41329        0.76789
C         -1.04687        1.06626        0.46039
C         -1.92262        1.72668       -0.33373
C         -3.06766        1.03248       -0.88893
C         -3.32105       -0.24757       -0.53469
N         -2.56122       -0.92562        0.45802
N          0.15254        1.65572        0.95682
H          2.74035        1.92671       -1.17863
H          4.39528        1.79166       -0.54774
H          3.00023        1.58332        0.53009
H          3.71343       -0.36135       -1.79333
H          3.90998       -0.70481       -0.01442
H         -1.04349       -0.59658        1.87398
H         -1.81119        2.78116       -0.57158
H         -3.71041        1.57633       -1.57387
H         -4.18097       -0.81095       -0.90685
H         -2.55965       -1.94818        0.34632
H          0.16565        2.66839        0.91691
H          0.43824        1.33430        1.87792
