23
67809043.log	Energy: -416280.7753717
C          3.74754       -0.37348       -0.25259
C          3.49285        0.66086        0.60045
C          2.12473        1.06175        0.76751
C          1.11921        0.25748        0.25368
C          1.46415       -1.02913       -0.31629
C          2.76231       -1.30224       -0.66749
C          0.25640       -1.87401       -0.36180
C         -0.79927       -1.14427        0.06102
C         -0.35798        0.32101        0.23153
C         -1.28081        1.33090        0.15787
C         -2.61439        0.74273        0.45465
C         -2.84217       -0.29281       -0.39861
C         -2.26740       -1.57205        0.10331
O         -2.71568       -2.63942        0.40763
C         -1.17262        2.67996       -0.27247
N         -1.21736        3.72881       -0.76041
H          4.78270       -0.58758       -0.55102
H          4.27884        1.25995        1.05659
H          1.88805        1.98450        1.29553
H          3.03908       -2.20304       -1.21176
H          0.26533       -2.91342       -0.65910
H         -3.02443        0.85657        1.45195
H         -2.77785       -0.18350       -1.48495
