29
67807885.log	Energy: -488606.1618847
C          5.64617        0.25720       -0.00065
C          4.31946       -0.44631       -0.00385
O          4.18592       -1.65389       -0.00533
N          3.21157        0.43201        0.00447
C          1.85013        0.03754        0.00143
C          1.40465       -1.24456        0.00219
C         -0.01391       -1.56292        0.00251
C         -0.92355       -0.56917        0.00142
C         -2.39837       -0.56817        0.00037
C         -3.32404       -1.59554        0.00029
C         -4.69251       -1.25846       -0.00112
C         -5.10913        0.07154       -0.00125
C         -4.17439        1.12511       -0.00023
C         -2.82744        0.80537       -0.00004
C         -1.62732        1.66202       -0.00012
C         -0.52407        0.86307        0.00033
C          0.89606        1.22030       -0.00015
O          1.32325        2.36015       -0.00240
H          6.45242       -0.46935       -0.20119
H          5.86445        0.71011        0.97742
H          5.72729        1.04411       -0.76140
H          3.36692        1.45114        0.00920
H          2.10874       -2.08844        0.00155
H         -0.29362       -2.61607        0.00342
H         -3.01379       -2.63763        0.00061
H         -5.43478       -2.05706       -0.00252
H         -6.17306        0.30581       -0.00230
H         -4.50956        2.16020       -0.00011
H         -1.65993        2.74086       -0.00089
