25
67832846.log	Energy: -543679.6115151
C         -4.12902       -1.45716       -0.08052
C         -2.95133       -2.16227        0.18931
C         -1.71973       -1.50382        0.17240
C         -1.67035       -0.12908       -0.11299
C         -2.85210        0.58065       -0.37631
C         -4.07778       -0.08807       -0.36389
C         -0.36193        0.55533       -0.13913
C          0.67073        0.09934       -0.85818
C          2.01534        0.71295       -0.88307
O          2.33602        1.79302       -1.31114
N          3.09767       -0.09149       -0.34723
N          3.01018       -1.37258        0.21700
O          1.93409       -1.92959        0.16136
O          4.05151       -1.78181        0.68293
C         -0.22514        1.75991        0.74584
O          0.48537        1.90220        1.71045
O         -1.04622        2.77066        0.31915
H         -5.08788       -1.97473       -0.06825
H         -2.99270       -3.22788        0.41389
H         -0.79956       -2.05232        0.38743
H         -2.80732        1.65194       -0.59159
H         -4.99615        0.45947       -0.57371
H          0.57138       -0.80216       -1.48472
H          4.03946        0.35851       -0.31581
H         -0.96054        3.59325        0.88157
