20
67851473.log	Energy: -342665.5134382
C         -3.36952       -0.25344        0.01188
C         -2.87458        1.17654       -0.01252
N         -1.62836        1.55531       -0.00914
C         -0.66455        0.53426       -0.00049
C          0.69248        0.52707       -0.00027
C          1.71889        1.53961        0.00562
C          3.01914        1.16371        0.00896
C          3.41413       -0.24318       -0.00086
C          2.51401       -1.25190       -0.00622
C          1.09608       -0.93475       -0.00311
N          0.07023       -1.77013       -0.00406
C         -1.11839       -0.93891        0.00043
N         -2.35030       -1.31784        0.00538
H         -4.01060       -0.42324        0.91725
H         -4.04593       -0.44476       -0.86216
H         -3.65210        1.95478       -0.02724
H          1.39849        2.58295        0.00851
H          3.82309        1.89968        0.01675
H          4.48711       -0.44826       -0.00487
H          2.79276       -2.30663       -0.01395
