19
67904080.log	Energy: -342128.3931572
C          1.41761        2.25482       -0.01268
C          1.04859        0.80939       -0.00834
C          1.98143       -0.20509       -0.00640
C          1.60180       -1.63750       -0.00399
C          0.32292       -2.05038       -0.00506
C         -0.74740       -1.06581       -0.00389
N         -2.03187       -1.18044       -0.00397
C         -2.59067        0.23470        0.00234
O         -3.74275        0.50850        0.00545
N         -1.43837        1.17334        0.00447
C         -0.34708        0.46135        0.00162
N          3.35377        0.04990        0.07401
H          0.52215        2.90152       -0.05113
H          2.02855        2.52341       -0.88429
H          1.95956        2.53699        0.90134
H          2.42108       -2.36225        0.01065
H          0.03069       -3.10486       -0.00318
H          3.67532        0.99257       -0.09169
H          3.99672       -0.66391       -0.22851
