28
68149109.log	Energy: -498647.9630257
C         -3.45918       -2.02342       -0.32687
C         -2.12925       -2.52368       -0.39629
C         -1.05428       -1.67177       -0.31505
C         -1.24911       -0.26338       -0.14915
C         -2.57844        0.23234       -0.09090
C         -3.67699       -0.67538       -0.17869
C         -2.79864        1.64043        0.05442
C         -1.75219        2.51493        0.12547
C         -0.39790        2.02755        0.07128
C         -0.14674        0.65668       -0.06468
C          1.21352        0.15078       -0.10255
C          2.17798        0.32662       -1.02487
C          3.44133       -0.37527       -0.61339
O          4.51053       -0.46145       -1.15335
N          3.13041       -0.97840        0.65568
C          1.77307       -0.71071        1.04403
O          1.27819       -1.11045        2.05900
N          0.63336        2.95812        0.23816
H         -4.29025       -2.72240       -0.39319
H         -1.97811       -3.59695       -0.51500
H         -0.04162       -2.06613       -0.37098
H         -4.68990       -0.27724       -0.12606
H         -3.82775        2.00340        0.10338
H         -1.92378        3.58341        0.23926
H          2.13007        0.85376       -1.96458
H          3.78170       -1.53125        1.20240
H          1.57787        2.69988        0.00441
H          0.42673        3.93639        0.12176
