30
68280698.log	Energy: -501767.6243642
C          4.14725       -1.62438        0.16105
C          3.95950       -0.64730       -0.82159
C          2.77961        0.10089       -0.85149
C          1.77666       -0.13778        0.10042
C          1.96126       -1.12613        1.07957
C          3.14790       -1.86218        1.11044
C          0.51566        0.65397        0.07894
C          0.59391        1.99866        0.10933
C         -0.53189        2.93125        0.08723
O         -1.63885        2.87964        0.57871
O         -0.16856        4.07397       -0.60148
C         -0.72369       -0.14044       -0.00071
C         -0.80770       -1.18132       -0.95077
C         -1.95649       -1.95371       -1.05942
C         -3.02835       -1.67918       -0.18942
C         -2.96980       -0.66415        0.77481
C         -1.80974        0.10810        0.85440
O         -4.12748       -2.48337       -0.35070
H          5.07049       -2.20154        0.18635
H          4.73544       -0.46431       -1.56391
H          2.63681        0.86401       -1.61645
H          1.17778       -1.31668        1.81340
H          3.29310       -2.62500        1.87438
H          1.57094        2.50097        0.13622
H         -0.90110        4.74476       -0.63201
H          0.04014       -1.37873       -1.61076
H         -2.04637       -2.75312       -1.79145
H         -3.80595       -0.46523        1.43762
H         -1.75587        0.92108        1.58789
H         -4.86078       -2.24599        0.26965
