30
68380902.log	Energy: -416349.0032557
C          4.56354        0.05255       -1.18233
C          3.24678        0.51315       -1.17824
C          2.39728        0.17580       -0.10989
C          2.92094       -0.63898        0.91788
N          4.19877       -1.09373        0.92125
C          5.00520       -0.74745       -0.11421
C          1.01093        0.65232       -0.08838
C          0.37426        1.03964        1.02468
C         -1.02924        1.55384        1.03509
C         -1.98428        0.82106        0.10668
O         -2.65168        1.39415       -0.74104
N         -2.07199       -0.55614        0.28625
C         -3.00081       -1.37491       -0.52648
C         -4.43512       -1.37601        0.05276
N         -5.25089       -0.18491       -0.28530
H          5.23879        0.30716       -1.99613
H          2.88026        1.13625       -1.99443
H          2.30121       -0.94779        1.76705
H          6.03139       -1.13021       -0.07395
H          0.51728        0.68050       -1.06590
H          0.86562        1.04218        1.99974
H         -1.44908        1.55747        2.06356
H         -1.02166        2.63099        0.72968
H         -1.55468       -1.03087        1.01577
H         -3.01227       -0.98015       -1.57114
H         -2.60491       -2.41147       -0.57943
H         -4.97358       -2.28129       -0.30737
H         -4.40264       -1.46233        1.16220
H         -4.76620        0.67039       -0.01062
H         -5.38417       -0.11664       -1.29141
