26
68504271.log	Energy: -451057.9072177
C         -4.37066       -1.32328        0.29304
O         -3.40398       -0.24858        0.10712
C         -2.09728       -0.65470       -0.04075
O         -1.71873       -1.79904        0.00346
N         -1.29388        0.47556       -0.41501
C          0.10680        0.50883       -0.17841
C          1.22300       -0.27826       -0.10428
C          1.45664       -1.69302       -0.18732
C          2.72938       -2.15652       -0.09173
C          3.85170       -1.25289        0.09537
C          3.68750        0.09178        0.19153
C          2.36329        0.65800        0.10300
C          1.92771        1.96850        0.17799
C          0.49733        1.95188        0.01797
C         -0.65474        2.67567        0.00294
N         -1.78716        1.79297       -0.06391
H         -5.26039       -0.77614        0.62551
H         -4.01771       -2.02898        1.05348
H         -4.52852       -1.82481       -0.66674
H          0.59134       -2.34672       -0.31975
H          2.94987       -3.22015       -0.15038
H          4.84232       -1.70297        0.15864
H          4.52506        0.77016        0.33489
H          2.51799        2.84981        0.32150
H         -0.82363        3.73809        0.10502
H         -2.57142        2.06704       -0.67052
