23
68549496.log	Energy: -437181.4928620
C          3.18026       -1.58111       -0.59423
C          4.07364       -0.77598        0.11402
C          3.58306        0.38390        0.74387
N          2.28455        0.75971        0.68015
C          1.42075       -0.03304       -0.02530
C          1.83202       -1.21732       -0.66747
C          0.03347        0.40832       -0.07105
C         -1.11407       -0.30126        0.01400
C         -2.27630        0.70091       -0.02932
N         -1.86823        1.92984       -0.15118
C         -0.37280        1.89999       -0.22013
O          0.29371        2.86354       -0.40529
C         -3.62713        0.15404        0.08285
C         -3.77234       -1.17839        0.21169
C         -2.59476       -2.07390        0.22594
N         -1.35274       -1.68415        0.13168
H          3.52782       -2.49058       -1.08516
H          5.12740       -1.03505        0.18387
H          4.24414        1.04312        1.32060
H          1.10858       -1.83829       -1.19562
H         -4.45992        0.86167        0.05909
H         -4.75169       -1.64939        0.30643
H         -2.78584       -3.15454        0.31934
