24
68636530.log	Energy: -429441.8595502
C          1.45796        0.82150        1.55478
C          0.10789        1.14901        1.59799
C         -0.53804        1.44686        0.37553
C          0.26151        2.03722       -0.63367
C          1.61109        1.69308       -0.69176
C          2.02576        0.69914        0.24415
C          2.02672       -0.69781       -0.24456
C          1.45897       -0.82070       -1.55470
C          0.10922       -1.15098       -1.59824
C         -0.53652       -1.44693       -0.37568
C          0.26297       -2.03606        0.63459
C          1.61229       -1.69161        0.69214
C         -1.81306       -0.80729        0.03051
O         -2.78487       -1.35036        0.47746
C         -1.81386        0.80640       -0.03129
O         -2.78638        1.34881       -0.47749
H          1.99607        0.46789        2.42726
H         -0.46189        1.07874        2.52168
H         -0.20124        2.63892       -1.41443
H          2.25082        1.99729       -1.51144
H          1.99662       -0.46689       -2.42745
H         -0.46034       -1.08228       -2.52226
H         -0.19936       -2.63726        1.41587
H          2.25193       -1.99496        1.51218
