17
68680161.log	Energy: -400733.4730432
C          0.72696        2.53122        0.00878
C         -0.61315        2.38472        0.00451
C         -1.19272        1.04349        0.00037
N         -2.44438        0.68514       -0.00462
C         -2.47478       -0.81163       -0.00759
O         -3.46803       -1.46455       -0.00264
C         -1.00794       -1.26750       -0.01121
C         -0.24352       -0.16621       -0.00235
C          1.17659        0.11166        0.00280
C          1.63859        1.38813        0.00687
N          2.13293       -1.02815        0.00163
O          3.31883       -0.74412       -0.04121
O          1.68172       -2.15623        0.04326
H          1.19126        3.52255        0.01325
H         -1.31322        3.22672        0.00632
H         -0.73631       -2.31277       -0.01637
H          2.71810        1.60051        0.00939
