15
68699715.log	Energy: -462514.5195804
C         -1.84350       -1.31873       -0.00202
N         -0.40173       -1.57648       -0.01636
C          0.28572       -0.48790       -0.00418
C          1.74768       -0.14383       -0.01192
C          1.84937        1.22585       -0.01524
C          0.50407        1.83454       -0.00087
C         -0.41535        0.84878        0.00412
S         -2.10985        0.54540        0.00545
N          2.73884       -1.10672        0.07910
H         -2.32695       -1.75511       -0.89925
H         -2.30902       -1.75580        0.90508
H          2.74682        1.81124       -0.01725
H          0.35069        2.89997        0.00215
H          2.49045       -2.05575       -0.16437
H          3.67800       -0.84066       -0.17217
