26
68768291.log	Energy: -427891.4744578
C         -4.30947       -0.12697        0.00456
C         -3.89723        1.20078       -0.00404
C         -2.52474        1.53891       -0.00811
C         -1.60219        0.51355       -0.00462
C         -2.02820       -0.86123        0.00468
C         -3.37062       -1.18282        0.00931
C         -0.82052       -1.71898        0.00853
C          0.27752       -0.92320        0.00292
C         -0.12202        0.51188       -0.00611
C          0.77599        1.50955       -0.01395
C          2.21299        1.17829       -0.00839
C          2.64655       -0.13070        0.00163
C          1.71590       -1.27533        0.00299
O          2.10341       -2.43183       -0.00643
N          4.07041       -0.40013       -0.05117
N          3.10312        2.25085        0.07864
H         -5.37263       -0.36690        0.00868
H         -4.63758        2.00056       -0.00674
H         -2.21667        2.58175       -0.01264
H         -3.70803       -2.21727        0.01683
H         -0.85393       -2.79820        0.01417
H          0.48625        2.55805       -0.01102
H          4.23680       -1.23618       -0.61691
H          4.40867       -0.61803        0.88745
H          4.08448        2.04432       -0.09208
H          2.80689        3.14918       -0.26493
