33
68769801.log	Energy: -409388.4841551
C          4.82123       -0.29372       -0.77960
C          3.47648       -1.00100       -0.67955
C          2.62097       -0.35744        0.38122
O          2.85852       -0.18482        1.55422
O          1.43366        0.02920       -0.18908
C          0.40625        0.64804        0.66786
C          0.21442        2.10500        0.13717
C         -1.20188        2.21727       -0.50280
C         -1.57727        0.75885       -0.77291
C         -0.88484        0.00183        0.39435
C         -1.90303       -0.75151        0.92514
C         -2.27034       -2.07045        0.32370
C         -2.91748       -1.41860       -0.98576
C         -3.01943        0.14539       -0.71146
C         -3.21020        0.09499        0.81980
H          4.71236        0.73992       -1.13174
H          5.48835       -0.81230       -1.47859
H          5.32809       -0.25565        0.19609
H          2.95067       -0.99007       -1.65958
H          3.61395       -2.07215       -0.41533
H          0.74211        0.59441        1.72412
H          0.33796        2.83246        0.95287
H          0.99626        2.32360       -0.61167
H         -1.90886        2.70146        0.19028
H         -1.18273        2.82851       -1.41706
H         -1.08095        0.42335       -1.71367
H         -2.99684       -2.66510        0.89126
H         -1.41301       -2.71503        0.08690
H         -2.29435       -1.63091       -1.86250
H         -3.91552       -1.83510       -1.16345
H         -3.77112        0.65460       -1.31307
H         -3.15891        1.06164        1.33124
H         -4.11428       -0.41070        1.16970
