29
68829.log	Energy: -413335.6658636
C          4.37878       -1.52979       -0.09717
C          3.50041       -0.30427        0.11822
C          2.05388       -0.54582       -0.36944
N          1.27762        0.72849       -0.22593
C          1.62564        1.72255       -1.28837
C         -0.14931        0.53921       -0.13483
N         -0.73055       -0.63603       -0.54688
N         -1.99734       -0.85867       -0.39212
C         -2.82253        0.08911        0.18631
C         -2.29512        1.33628        0.62305
C         -0.94008        1.56000        0.46352
N         -4.17452       -0.25880        0.45180
N         -4.74479       -1.40765       -0.17178
O          3.51996       -0.09099        1.54285
H          3.94666       -2.42261        0.37432
H          5.35863       -1.38034        0.37963
H          4.54147       -1.74293       -1.15702
H          3.94379        0.60331       -0.35316
H          2.04661       -0.95016       -1.40292
H          1.58448       -1.33308        0.26803
H          1.40419        1.37987       -2.31145
H          1.08437        2.66540       -1.11292
H          2.70442        1.94697       -1.22283
H         -2.94013        2.08045        1.08726
H         -0.47264        2.48619        0.79972
H         -4.83903        0.52687        0.37201
H         -4.33125       -1.60664       -1.09459
H         -4.51575       -2.22455        0.41365
H          2.80152        0.52400        1.80406
