24
68901209.log	Energy: -393334.9858780
C          3.41477       -1.22337        0.00749
C          3.60425        0.11598        0.00110
C          2.47580        1.04954       -0.00354
O          2.60870        2.26309       -0.00654
C          1.10257        0.43847       -0.00213
C          0.01344        1.24601       -0.00036
C         -1.33680        0.70825        0.00100
C         -2.46080        1.49629        0.00625
C         -3.75812        0.90215        0.00620
C         -3.88332       -0.46413       -0.00037
N         -2.76497       -1.28642       -0.00556
C         -1.44785       -0.75284       -0.00371
C         -0.35973       -1.57751       -0.00530
C          0.98203       -1.02751       -0.00082
C          2.09988       -1.81332        0.00551
H          4.26617       -1.90866        0.01321
H          4.59155        0.57188        0.00077
H          0.13318        2.33731        0.00022
H         -2.38592        2.58679        0.01054
H         -4.63757        1.54198        0.01130
H         -4.85893       -0.96451       -0.00153
H         -2.88000       -2.29801       -0.00993
H         -0.44938       -2.65885       -0.01033
H          2.02944       -2.89592        0.00899
