30
689652.log	Energy: -488796.6454958
C         -4.33722       -0.60701       -0.33199
C         -3.84167        0.81726       -0.01878
C         -2.32027        0.77267       -0.25561
H         -1.92337        1.64012       -0.82483
O         -2.08559       -0.34390       -1.13767
C         -3.13092       -1.33452       -0.94599
C         -1.54651        0.56477        1.06816
N         -0.10373        0.36952        0.82749
C          0.75577        1.39631        0.29618
O          0.44539        2.55381        0.18352
C          2.04452        0.69139       -0.02285
C          3.23149        1.19759       -0.50567
C          4.29384        0.28798       -0.72382
C          4.14423       -1.06748       -0.45594
C          2.92402       -1.58393        0.04199
C          1.89107       -0.69658        0.25091
C          0.49994       -0.94136        0.76594
O         -0.03895       -1.95707        1.11820
H         -5.19257       -0.58444       -1.02813
H         -4.69135       -1.11859        0.57875
H         -4.31334        1.55333       -0.69398
H         -4.10602        1.12693        1.00449
H         -2.71595       -2.11794       -0.29032
H         -3.30845       -1.73101       -1.95716
H         -1.68327        1.44747        1.73268
H         -1.93399       -0.33331        1.60538
H          3.35249        2.26061       -0.71732
H          5.24151        0.66672       -1.10948
H          4.97437       -1.75359       -0.63012
H          2.80965       -2.64832        0.24988
