28
68973634.log	Energy: -475412.1677826
C         -3.61848       -1.89387        0.27971
C         -2.14757       -1.94726       -0.16501
C         -1.44767       -0.62568       -0.07459
C         -2.11805        0.55534       -0.05875
C         -3.57921        0.57006       -0.09331
C         -4.27787       -0.56732        0.04443
C         -1.43282        1.89499       -0.00793
O         -2.00893        2.95013        0.00568
N          0.03685        1.91256        0.02220
C          0.67223        0.79999        0.00269
C          0.01453       -0.60008       -0.04834
N          0.88913       -1.57108       -0.06086
C          2.20768       -0.95703       -0.02268
C          3.43042       -1.59346       -0.02369
C          4.58790       -0.77860        0.01947
C          4.50046        0.60668        0.06080
C          3.24526        1.26355        0.05952
C          2.11322        0.48263        0.01829
H         -3.68980       -2.12432        1.36696
H         -4.18304       -2.69986       -0.23231
H         -1.60136       -2.71428        0.42672
H         -2.07990       -2.29814       -1.22086
H         -4.05354        1.54451       -0.23191
H         -5.36684       -0.58017        0.02543
H          3.50860       -2.67931       -0.05656
H          5.56634       -1.26240        0.02051
H          5.40815        1.21008        0.09421
H          3.18073        2.35268        0.08943
