18
69017646.log	Energy: -390788.1280826
C         -2.48532       -1.53328        0.04854
C         -1.13531       -1.54748        0.04163
C         -0.41133       -0.29702        0.01597
C          0.89559        0.04452        0.00499
C          0.97623        1.58284       -0.04409
O          1.91868        2.30132       -0.09763
N         -0.44000        2.06036       -0.03572
C         -1.21528        1.01598       -0.00439
C         -2.67073        0.92771        0.01077
C         -3.25761       -0.28578        0.03586
C          2.07934       -0.80423        0.04323
O          3.22725       -0.55070        0.30927
O          1.73782       -2.11051       -0.28072
H         -3.06007       -2.46322        0.06281
H         -0.53984       -2.46784        0.04404
H         -3.22651        1.86864        0.00139
H         -4.34647       -0.38622        0.04868
H          2.52927       -2.71439       -0.26927
