28
69037744.log	Energy: -451826.4329119
C          3.57452       -1.28789       -1.19677
N          2.85513       -0.30999       -0.34502
C          2.95472        1.09735       -0.78587
C          1.92085       -0.78285        0.56837
O          1.77434       -1.98501        0.75161
C          1.12944        0.23667        1.38585
C         -0.13188        0.56739        0.70640
C         -1.18291       -0.19615        0.35024
C         -1.47753       -1.61029        0.44527
C         -2.66299       -2.07162       -0.00734
C         -3.66723       -1.18221       -0.59520
C         -3.46780        0.14618       -0.74216
C         -2.21601        0.73067       -0.29432
N         -1.80591        1.97734       -0.34764
C         -0.45675        2.01552        0.24223
O          0.25898        2.96855        0.31407
H          4.64404       -1.02854       -1.24936
H          3.16094       -1.32061       -2.21732
H          3.48857       -2.30490       -0.76213
H          2.59958        1.22113       -1.82392
H          2.36292        1.78050       -0.14888
H          4.00690        1.43030       -0.73842
H          0.91959       -0.22587        2.38318
H          1.72870        1.14890        1.60900
H         -0.69856       -2.25544        0.87077
H         -2.91644       -3.13133        0.04374
H         -4.60100       -1.64941       -0.91921
H         -4.20484        0.81900       -1.18457
