18
6914052.log	Energy: -691897.8828395
C          3.55406       -0.31660        0.01938
C          2.84613       -0.24764        1.22337
C          1.45395       -0.12678        1.21368
C          0.76832       -0.07220       -0.00909
C          1.47739       -0.14360       -1.21831
C          2.86866       -0.26663       -1.19893
C         -0.70079        0.06646       -0.02334
C         -1.53749       -0.96959       -0.03086
S         -3.28653       -0.91490       -0.00895
S         -1.13743        1.77463        0.01653
H          4.63870       -0.40733        0.03071
H          3.37958       -0.28629        2.17190
H          0.90344       -0.07083        2.15186
H          0.94346       -0.09928       -2.16640
H          3.42100       -0.32182       -2.13596
H         -1.15818       -1.99969       -0.07881
H         -3.48721        0.13494        0.81887
H         -2.23877        1.75381       -0.76876
