29
69165388.log	Energy: -486160.2810801
C          4.80888       -0.55731        0.33652
C          4.03808        0.49085        0.69255
C          2.62884        0.58319        0.29989
C          1.98131        1.77164        0.45714
N          0.71110        2.16262        0.01443
C         -0.29514        1.37518       -0.22508
C         -1.57827        1.98075       -0.63798
C         -2.73261        1.38400       -0.31569
C         -2.76607        0.09784        0.47685
C         -1.51548       -0.71072        0.27422
C         -0.35064       -0.11658       -0.06619
N          0.75234       -0.91975       -0.42579
C          2.01660       -0.62645       -0.29497
C          2.94651       -1.67729       -0.76806
C          4.25614       -1.64562       -0.45756
C         -4.03476       -0.69163        0.13052
O         -4.88691       -0.30067       -0.64633
N         -4.22607       -1.88748        0.82006
H          5.85820       -0.62373        0.61924
H          4.44115        1.31900        1.27720
H          2.49837        2.62721        0.93091
H         -1.52255        2.92295       -1.18577
H         -3.70924        1.78524       -0.60536
H         -2.83062        0.38239        1.56915
H         -1.58241       -1.79074        0.38742
H          2.50034       -2.48161       -1.35784
H          4.94285       -2.42582       -0.78734
H         -3.54383       -2.29337        1.43287
H         -5.03882       -2.45094        0.61624
