25
691969.log	Energy: -686736.4118849
C         -1.63568        1.92527       -1.13748
C         -0.55073        1.73379       -0.27916
C         -0.56494        0.70019        0.67438
C         -1.67457       -0.14778        0.75810
C         -2.75541        0.05716       -0.11168
C         -2.75087        1.08701       -1.06133
N         -3.93173       -0.84006       -0.02119
O         -3.91098       -1.71871        0.82591
O         -4.85179       -0.64636       -0.79928
C          0.60129        0.52201        1.61321
C          1.87667        0.33377        0.89275
C          2.98307        1.13185        0.83451
N          4.04210        0.67646        0.02397
C          3.75623       -0.50192       -0.52337
S          2.12647       -1.10445       -0.08214
N          4.61352       -1.29878       -1.26117
H         -1.61346        2.73001       -1.87364
H          0.32090        2.38860       -0.35068
H         -1.71367       -0.96586        1.48513
H         -3.60847        1.22204       -1.72805
H          0.66495        1.41294        2.28471
H          0.42489       -0.33247        2.30926
H          3.12912        2.08164        1.34276
H          5.49157       -0.86971       -1.54345
H          4.20527       -1.88687       -1.97561
