22
69255508.log	Energy: -436588.5438171
C         -4.60412       -0.57977        0.01260
C         -3.54201        0.23047        0.00575
N         -2.21507       -0.29618        0.03918
C         -1.06493        0.47603       -0.00389
C         -1.14047        1.91134       -0.04634
C          0.00072        2.67277       -0.06102
C          1.28184        2.05874       -0.03267
C          1.37169        0.68501       -0.00471
C          0.21330       -0.14482       -0.00081
C          0.36821       -1.60300        0.00889
O         -0.51526       -2.42046        0.12565
N          1.76220       -2.13465       -0.17619
N          2.76163       -1.43976       -0.16489
C          2.73275        0.04893        0.04040
O          3.77186        0.62076        0.21140
H         -4.55674       -1.65928        0.03843
H         -5.61867       -0.20811       -0.00661
H         -3.62216        1.32389       -0.02263
H         -2.12040       -1.33036        0.08296
H         -2.12164        2.38997       -0.06388
H         -0.05892        3.76402       -0.09125
H          2.18257        2.67750       -0.02931
