24
693180.log	Energy: -447880.1348108
C          4.14227       -0.13409       -0.01417
C          3.54048       -1.42330        0.02154
C          2.17264       -1.55606        0.03562
C          1.33827       -0.39771        0.01888
C          1.93554        0.89027       -0.02196
C          3.36000        0.99538       -0.03633
C          1.10722        2.06121       -0.05585
C         -0.25875        1.97354       -0.01646
C         -0.87506        0.68806        0.06459
C         -0.09634       -0.48410        0.03988
N         -0.73457       -1.75643       -0.04066
N         -1.95762       -1.89728       -0.07055
C         -2.91196       -0.78050       -0.00301
N         -4.16576       -0.98336       -0.08759
N         -2.26666        0.52835        0.29547
O         -3.04230        1.61391       -0.16353
H          5.22929       -0.06152       -0.02317
H          4.18341       -2.30422        0.03635
H          1.70095       -2.54222        0.06063
H          3.81238        1.98625       -0.06520
H          1.59562        3.03704       -0.11676
H         -0.89370        2.85910       -0.05625
H         -4.82556       -0.21228       -0.09192
H         -3.31763        2.09133        0.69139
