25
69369032.log	Energy: -674161.8446029
C          3.83415        1.72206        0.00136
C          4.20995        0.40762        0.00108
C          2.99854       -0.41112       -0.00002
C          2.78536       -1.75541        0.00042
N          1.48135       -2.30555       -0.00073
C          0.48508       -1.45651       -0.00122
C          0.54653       -0.00021       -0.00061
C         -0.71120        0.57595       -0.00038
C         -1.81556       -0.34438       -0.00034
C         -3.12542        0.10891        0.00061
N         -3.37776        1.50992       -0.00080
C         -2.35596        2.34830       -0.00112
N         -1.01036        1.95265       -0.00072
N         -4.23641       -0.69110        0.00349
S         -1.21925       -1.98372       -0.00081
C          1.86067        0.56323       -0.00065
C          2.37314        1.83385        0.00008
H          4.48013        2.58060        0.00241
H          5.20068       -0.00004        0.00184
H          3.58153       -2.50409        0.00133
H         -2.56109        3.43466       -0.00162
H         -0.24148        2.62979        0.00033
H         -4.15571       -1.69551        0.00344
H         -5.16188       -0.28797        0.00136
H          1.85646        2.76687        0.00002
