22
69379700.log	Energy: -451682.2420278
C          2.70844       -1.30774       -0.09288
C          1.32662       -1.42379       -0.06815
C          0.47960       -0.29242        0.00741
C          1.09954        0.98141        0.06120
C          2.49293        1.13804        0.04346
C          3.27553       -0.01777       -0.03391
O          4.62322        0.18662       -0.04784
O          0.28429        2.06908        0.13698
C         -0.96913       -0.48808        0.03023
C         -1.93984        0.46728       -0.07678
C         -3.32779        0.11247       -0.04588
O         -3.79823       -1.02305        0.07023
O         -4.18849        1.17116       -0.16144
O         -1.27485       -1.80423        0.16336
H          3.33470       -2.19161       -0.15444
H          0.86237       -2.41891       -0.10868
H          2.96858        2.11317        0.08864
H          5.13814       -0.66178       -0.10165
H          0.79139        2.92602        0.17872
H         -1.69321        1.52734       -0.18702
H         -5.14089        0.87639       -0.13165
H         -2.30396       -1.98359        0.17771
