26
69504.log	Energy: -407103.1021527
C          3.53135       -1.39260        0.00480
C          3.62888        0.04178        0.01077
C          2.51092        0.81868        0.01785
C          1.18793        0.23449        0.01583
C          1.09751       -1.19963        0.00194
C          2.30859       -1.99000       -0.00170
C         -0.15597       -1.81948       -0.01076
C         -1.33735       -1.06121       -0.00605
C         -2.62776       -1.70799       -0.02425
C         -3.77645       -0.97439       -0.01986
C         -3.71130        0.45891        0.00461
C         -2.50806        1.10029        0.02227
C         -1.26260        0.36743        0.01657
C          0.00404        1.00413        0.02830
C          0.04020        2.49118        0.06220
O          1.02756        3.17284       -0.12206
H          4.45141       -1.97446        0.00412
H          4.62296        0.48979        0.00916
H          2.59243        1.91471        0.01388
H          2.20906       -3.07473       -0.00953
H         -0.21809       -2.90953       -0.02403
H         -2.65449       -2.79752       -0.04214
H         -4.75543       -1.45022       -0.03353
H         -4.64732        1.01808        0.00844
H         -2.46763        2.19219        0.04283
H         -0.93298        2.97945        0.27224
