27
69535306.log	Energy: -451245.7473868
C         -1.79705        2.90632        0.25964
C         -2.15211        1.85839        1.11725
C         -1.62651        0.58160        0.91603
C         -0.74178        0.34688       -0.14925
C         -0.37417        1.40311       -0.99855
C         -0.90904        2.67811       -0.79519
C         -0.15183       -0.98735       -0.36448
C          1.15628       -1.31540       -0.37295
C          2.25198       -0.34295       -0.25419
O          2.38954        0.68411       -0.90692
N          3.23907       -0.69147        0.68156
N          4.36333        0.13323        0.94323
O         -0.96882       -2.08134       -0.59912
C         -2.40563       -1.98021       -0.57156
O         -2.81430       -2.11444        0.77017
H         -2.20903        3.90245        0.41878
H         -2.83736        2.03952        1.94385
H         -1.91028       -0.23911        1.58246
H          0.35596        1.23250       -1.79877
H         -0.62061        3.49588       -1.45462
H          1.45568       -2.35495       -0.53005
H          3.17061       -1.48296        1.31923
H          4.04789        1.09338        1.14848
H          4.92866        0.21352        0.08476
H         -2.79144       -1.00321       -0.90503
H         -2.70173       -2.84780       -1.18851
H         -2.45735       -2.93903        1.17232
