27
69598451.log	Energy: -425580.6821140
C          4.50965       -0.11479        0.06049
C          3.25767        0.75299        0.14031
N          2.08632       -0.00345       -0.39420
C          0.79261        0.50246       -0.21295
C         -0.32591       -0.30547       -0.13476
C         -1.67898        0.24555       -0.05086
C         -2.75612       -0.57843       -0.11612
C         -2.52758       -2.01704       -0.19300
N         -1.32987       -2.54500       -0.15154
N         -0.20267       -1.75598       -0.27199
O          0.72795       -2.18288        0.74204
C         -1.82895        1.71958        0.12617
N         -2.99143        2.19981        0.42436
C         -0.59841        2.52624       -0.06931
C          0.60891        1.96425       -0.22751
H          4.45072       -0.99074        0.71872
H          5.39899        0.45510        0.35722
H          4.68519       -0.48217       -0.96050
H          3.08503        1.08179        1.19049
H          3.39117        1.67128       -0.47764
H          2.17110       -1.02536       -0.27717
H         -3.78157       -0.21001       -0.06312
H         -3.38948       -2.69289       -0.25840
H          0.83992       -3.17450        0.58949
H         -3.09952        3.20420        0.53516
H         -0.72761        3.60901       -0.08095
H          1.49862        2.57768       -0.39079
