22
69598413.log	Energy: -366569.6849913
C          1.11442       -2.49716        0.00201
C          2.06623       -1.53902        0.05281
N          1.72912       -0.17414        0.34243
C          0.37214        0.26244        0.08601
C          0.01025        1.58913        0.04386
C         -1.41015        1.95444        0.09582
C         -2.38031        1.02774        0.06432
C         -2.07829       -0.41763       -0.03437
N         -2.97170       -1.34881       -0.15796
C         -0.64147       -0.80541        0.02457
C         -0.28097       -2.11757        0.00244
N          0.88818        2.68362       -0.17227
O          2.67745        0.67021       -0.32969
H          1.36433       -3.55442       -0.05559
H          3.13771       -1.73699       -0.02589
H         -1.64351        3.02148        0.14025
H         -3.43347        1.30391        0.09936
H         -3.95275       -1.08649       -0.18609
H         -1.03168       -2.91420       -0.04399
H          1.87733        2.44029       -0.20475
H          0.72499        3.47815        0.43301
H          3.38730        0.82020        0.37108
