30
69598380.log	Energy: -509489.1244552
C         -2.75536       -1.97004        1.14106
O         -2.37895       -1.41785       -0.15455
C         -1.29171       -0.54943       -0.08706
C         -1.44377        0.79884       -0.13282
C         -0.26486        1.73937       -0.13366
N         -0.34498        3.01017       -0.33129
C          1.05032        1.10021        0.13232
C          2.13467        1.84531        0.47664
C          3.42485        1.20918        0.65259
C          3.57895       -0.10121        0.36166
N          2.46666       -0.97311        0.09200
C          1.16001       -0.35140        0.00492
C          0.04741       -1.16669       -0.07496
N          0.10025       -2.55853       -0.10991
O          2.74253       -1.74128       -1.08476
O         -2.58699        1.53937       -0.21315
C         -3.86022        0.84745       -0.32413
H         -3.52443       -2.69875        0.86494
H         -3.15809       -1.17547        1.77463
H         -1.89958       -2.45482        1.62212
H         -1.25990        3.42921       -0.49310
H          2.07558        2.93002        0.59221
H          4.25364        1.82150        1.00267
H          4.53745       -0.62808        0.37204
H          1.00891       -2.98257       -0.28285
H         -0.68280       -3.03604       -0.53574
H          2.66911       -1.16084       -1.90007
H         -3.81628        0.07827       -1.10446
H         -4.11543        0.40853        0.64426
H         -4.53607        1.66788       -0.59198
