29
69598240.log	Energy: -519526.7640118
C         -3.94999        0.92193       -0.11152
O         -2.63599        1.52474        0.04671
C         -1.53382        0.72587       -0.08290
C         -1.46753       -0.62797       -0.19165
C         -0.18377       -1.35472       -0.37062
N         -0.07321       -2.58427       -0.75425
C          1.03291       -0.55629       -0.08886
C          2.24974       -1.14411        0.05659
N          3.37442       -0.35432        0.44779
C          3.24632        1.08321        0.26194
N          2.10376        1.67945        0.12119
C          0.91330        0.90738       -0.00636
C         -0.30072        1.55325       -0.07180
N         -0.44070        2.93770       -0.22234
O          4.60973       -0.86240        0.02102
O         -2.61032       -1.42092       -0.24757
C         -2.89353       -2.10168        1.00858
H         -4.58249        1.80419       -0.26242
H         -4.20581        0.38384        0.80471
H         -3.96921        0.25094       -0.97923
H         -0.92968       -3.09954       -0.95994
H          2.42087       -2.22481       -0.03500
H          4.18755        1.64412        0.35185
H          0.37506        3.49486        0.01023
H         -1.31441        3.33943        0.09293
H          4.62886       -0.90822       -0.99092
H         -2.08472       -2.79451        1.25672
H         -3.04216       -1.37346        1.80950
H         -3.81852       -2.63930        0.77319
