29
69598530.log	Energy: -519508.2007832
C          2.84736       -2.03286        0.79874
O          2.34093       -1.40507       -0.41643
C          1.27659       -0.53753       -0.18072
C          1.44913        0.80140       -0.03860
C          0.29378        1.73377        0.21547
N          0.41282        2.96617        0.56851
C         -1.05919        1.13436        0.03157
C         -2.16840        1.91624       -0.00949
C         -3.46869        1.26576       -0.13767
N         -3.60755       -0.03344       -0.20213
N         -2.50989       -0.86035       -0.36796
C         -1.17433       -0.31362       -0.12192
C         -0.07065       -1.14054       -0.18368
N         -0.12749       -2.53178       -0.18680
O         -2.67206       -1.96324        0.54373
O          2.59878        1.53524       -0.07475
C          3.83331        0.87709       -0.47245
H          3.57932       -2.74344        0.40084
H          2.04343       -2.54513        1.33686
H          3.31947       -1.27691        1.43218
H          1.34547        3.36598        0.66831
H         -2.12980        3.00192        0.08414
H         -4.37339        1.88639       -0.16291
H         -1.04874       -2.95600       -0.29713
H          0.62855       -3.01820       -0.65176
H         -3.59497       -2.32672        0.35961
H          4.21543        0.30136        0.37517
H          3.67003        0.23278       -1.34459
H          4.47521        1.73373       -0.70980
