28
69598494.log	Energy: -531976.2211855
C          3.92915        1.00591       -0.16471
O          2.60048        1.59779       -0.15126
C          1.51830        0.76878       -0.05012
C          1.48853       -0.59579       -0.10993
C          0.22035       -1.36325       -0.03483
O          0.17032       -2.57861        0.02293
C         -1.01806       -0.54043       -0.05650
C         -2.23405       -1.14619       -0.13510
N         -3.39534       -0.35038       -0.35859
C         -3.28097        1.06507       -0.01069
N         -2.13983        1.66676        0.09922
C         -0.93097        0.92010        0.02637
C          0.27998        1.57441        0.07696
N          0.41543        2.93882        0.35217
O         -4.53830       -0.92578        0.24894
O          2.66909       -1.26558       -0.38043
C          2.96608       -2.39002        0.49650
H          4.10775        0.47304        0.77306
H          4.56273        1.89419       -0.26308
H          4.02733        0.32915       -1.02352
H         -2.37288       -2.23524       -0.11160
H         -4.23682        1.59711        0.07694
H         -0.41623        3.50615        0.23318
H          1.26856        3.38333        0.03882
H         -5.11458       -1.20253       -0.53867
H          3.93276       -2.72351        0.10625
H          3.03618       -2.05241        1.53119
H          2.20074       -3.16979        0.37860
