27
69598642.log	Energy: -425573.4850309
C         -3.87218       -0.80907        1.25385
C         -3.67241       -0.78753       -0.25987
N         -2.27047       -1.06184       -0.67868
C         -1.27900       -0.08164       -0.42090
C          0.01670       -0.40574       -0.11570
C          0.52813       -1.75863        0.08980
C          1.85488       -1.99819        0.03916
N          2.74670       -0.92481       -0.35939
N          2.34174        0.37520       -0.09059
C          1.06136        0.64456       -0.03209
C          0.59829        2.06269        0.12359
N          1.33214        2.92370        0.73769
C         -0.75902        2.31911       -0.42806
C         -1.63473        1.32797       -0.65296
O          3.98211       -1.15654        0.30413
H         -3.61806       -1.78108        1.69250
H         -4.91534       -0.59884        1.51925
H         -3.25125       -0.05631        1.75718
H         -4.31025       -1.56057       -0.74878
H         -3.99683        0.19218       -0.67934
H         -1.98030       -2.01369       -0.43028
H         -0.18372       -2.55681        0.28602
H          2.33510       -2.96233        0.20724
H          0.99680        3.87671        0.84631
H         -1.00703        3.36068       -0.63107
H         -2.63675        1.52706       -1.04404
H          4.60799       -0.44155       -0.05210
