29
69598529.log	Energy: -521925.1116236
C         -2.57484       -2.38389        0.72010
O         -2.44182       -1.30031       -0.24327
C         -1.31936       -0.50961       -0.09620
C         -1.45379        0.84695       -0.08307
C         -0.27908        1.78596       -0.10383
N         -0.36802        3.06355       -0.25575
C          1.05634        1.15585        0.07718
C          2.17718        1.90262        0.26137
C          3.47257        1.26013        0.37049
C          3.58161       -0.08161        0.25186
N          2.42784       -0.93676        0.24350
C          1.14237       -0.30391        0.03877
C          0.02395       -1.09614       -0.05687
O          0.05384       -2.44835       -0.16571
O          2.61347       -2.01348       -0.68033
O         -2.59977        1.59127       -0.11580
C         -3.87423        0.89691       -0.03752
H         -3.58215       -2.75310        0.50050
H         -2.49327       -2.00397        1.73982
H         -1.81754       -3.15194        0.51606
H         -1.29056        3.48553       -0.36040
H          2.13827        2.99524        0.30202
H          4.34351        1.89199        0.53962
H          4.52860       -0.62961        0.24777
H          1.01467       -2.80873       -0.11404
H          2.52543       -1.68332       -1.62905
H         -3.97129        0.19627       -0.87662
H         -3.95326        0.37251        0.91859
H         -4.58329        1.72908       -0.11122
