24
69598516.log	Energy: -458119.4077218
C          2.63687       -1.69258       -0.42892
C          3.06247       -0.41396       -0.26115
N          2.13758        0.68275       -0.21451
C          0.73886        0.33359       -0.07597
C         -0.24273        1.29710       -0.06024
C         -1.67109        0.88308       -0.15671
C         -2.02625       -0.42335        0.04466
C         -1.01999       -1.50387        0.22430
O         -1.34519       -2.62125        0.55205
C          0.41240       -1.10317       -0.06628
N          1.28353       -2.05594       -0.26083
N         -3.40800       -0.82302       -0.02045
N         -2.64197        1.89843       -0.33737
N          0.02855        2.67910       -0.03462
O          2.49650        1.56782        0.86670
H          3.30201       -2.52937       -0.66027
H          4.11425       -0.12368       -0.23152
H         -3.49021       -1.83904       -0.11198
H         -3.90482       -0.54873        0.82665
H         -3.56251        1.54729       -0.60518
H         -2.35926        2.65117       -0.95862
H         -0.63247        3.24524        0.48760
H          0.98959        2.92329        0.19918
H          3.19199        2.17090        0.46036
