26
69598584.log	Energy: -435637.3596270
C          2.74708       -1.57604       -0.55159
C          3.08976       -0.28952       -0.31404
N          2.10715        0.74198       -0.15338
C          0.71651        0.33961       -0.05813
C         -0.26969        1.29583       -0.05902
C         -1.68775        0.86846       -0.16061
C         -2.02268       -0.44627        0.01673
C         -0.98420       -1.49434        0.24379
N         -1.18676       -2.68428        0.70266
C          0.40706       -1.09100       -0.09614
C          1.37429       -2.00304       -0.37547
N         -3.36794       -0.95296        0.08205
N         -2.67613        1.87634       -0.36754
N         -0.02009        2.69548       -0.07672
O          2.47941        1.62165        0.90248
H          3.48574       -2.32077       -0.84257
H          4.11723        0.08685       -0.30711
H         -2.13804       -2.95941        0.94786
H          1.15538       -3.07360       -0.41774
H         -3.64017       -1.41750       -0.78056
H         -4.05147       -0.23769        0.30903
H         -2.31640        2.72874       -0.79296
H         -3.48243        1.55822       -0.89399
H          0.97386        2.93836       -0.06421
H         -0.51322        3.20637        0.65054
H          2.35827        1.15922        1.78940
