28
69598332.log	Energy: -531954.6706084
C          3.93962        0.95362       -0.06313
O          2.62195        1.56971       -0.09775
C          1.51998        0.76132       -0.04449
C          1.46655       -0.59835       -0.13413
C          0.18755       -1.35843       -0.09000
O          0.13722       -2.56578       -0.10845
C         -1.05134       -0.49242       -0.00779
N         -2.20317       -1.11618        0.05097
N         -3.34175       -0.40706        0.34854
C         -3.37381        1.01424        0.06909
C         -2.20859        1.68810       -0.02008
C         -0.93189        0.97757        0.00689
C          0.29180        1.59208        0.03216
N          0.46805        2.97179        0.22131
O         -4.45356       -0.99802       -0.30081
O          2.64430       -1.28008       -0.38011
C          2.88247       -2.45554        0.44729
H          4.59190        1.83236       -0.11491
H          4.06426        0.29245       -0.93067
H          4.06611        0.39974        0.87115
H         -4.37079        1.45358        0.02332
H         -2.19646        2.77198       -0.11839
H         -0.30090        3.57009       -0.04306
H          1.37439        3.35086       -0.03047
H         -4.50971       -1.93855        0.08189
H          3.89777       -2.73193        0.14494
H          2.82650       -2.19722        1.50547
H          2.16160       -3.24300        0.18700
