23
69705735.log	Energy: -437176.9347700
C          3.15602       -1.55114        0.53382
C          4.13447       -0.76953       -0.08192
C          3.76222        0.48228       -0.60471
N          2.49654        0.95818       -0.53576
C          1.54217        0.17967        0.06304
C          1.84116       -1.08000        0.61172
C          0.18180        0.76738        0.10282
C         -0.01533        2.10625        0.20292
C         -1.33989        2.72987        0.21624
C         -2.48294        2.02325        0.11397
C         -2.41354        0.57878       -0.00134
N         -3.32385       -0.33304       -0.10460
C         -2.61608       -1.65954       -0.17691
O         -3.12284       -2.72295       -0.27963
N         -1.13577       -1.38511       -0.09007
C         -0.98574       -0.10434        0.00386
H          3.40920       -2.52755        0.94957
H          5.16197       -1.11671       -0.16016
H          4.49343        1.13403       -1.09849
H          1.06341       -1.69044        1.07492
H          0.84440        2.78809        0.26273
H         -1.35684        3.82071        0.30753
H         -3.47728        2.47763        0.11289
