20
69714344.log	Energy: -368314.9666250
C          3.12971       -0.91508        0.15107
C          3.17034        0.48543        0.13443
C          1.98421        1.20914        0.02208
C          0.75272        0.53911       -0.05386
C          0.70825       -0.87536       -0.04247
C          1.91424       -1.59307        0.05915
C         -0.56377       -1.57909       -0.14952
C         -1.75263       -0.92844       -0.07705
C         -1.77708        0.55630        0.22664
O         -2.70218        1.08085        0.78864
C         -0.49050        1.32364       -0.18875
O         -0.56891        2.45941       -0.58140
N         -2.99715       -1.51368       -0.30711
H          4.05903       -1.48091        0.23505
H          4.12430        1.00504        0.20333
H          1.99905        2.30250       -0.00711
H          1.89690       -2.68151        0.06668
H         -0.51714       -2.65564       -0.30690
H         -3.05978       -2.51939       -0.25899
H         -3.80652       -1.03191        0.06942
