24
69715440.log	Energy: -520314.1255265
C         -0.89820        2.50694       -0.00203
C         -2.25029        2.07045       -0.00269
C         -2.53342        0.71808       -0.00016
C         -1.50296       -0.28265        0.00155
C         -0.19363        0.12679        0.00141
C          0.09457        1.55593        0.00013
N          1.52789        1.77495       -0.00046
C          2.09545        0.59820       -0.00041
C          1.10393       -0.54834        0.00045
C          1.50643       -1.82546       -0.00019
C          2.96457       -2.07456       -0.00366
N          3.87881       -1.15409       -0.00424
C          3.57065        0.26792        0.00051
O          4.45559        1.07534        0.00603
O         -1.79354       -1.64058        0.00228
C         -3.16402       -1.94492        0.00112
C         -4.12768       -1.01636        0.00034
O         -3.88314        0.35887        0.00002
H         -0.66493        3.57337       -0.00351
H         -3.06163        2.80061       -0.00517
H          0.82295       -2.67301        0.00150
H          3.29162       -3.12899       -0.00666
H         -3.25494       -3.02425        0.00199
H         -5.20365       -1.15491       -0.00013
