27
69723601.log	Energy: -521165.4332569
C         -4.24122       -0.41004        0.03076
C         -3.23082        0.62567       -0.33727
O         -3.52588        1.68302       -0.85082
C         -1.79004        0.31085       -0.03640
C         -0.84826        1.22731       -0.33292
C          0.59322        1.13340       -0.11796
C          1.32806        2.25705        0.15911
C          2.75799        2.20058        0.34628
C          3.41223        1.00300        0.32922
N          2.63077       -0.17003        0.34747
C          1.30871       -0.12669       -0.25315
C          1.12251       -1.26675       -0.97313
N          2.31734       -2.08651       -0.93608
O          3.23051       -1.40501       -0.06608
C         -1.51013       -1.00818        0.56482
O         -1.64204       -2.10617        0.07045
O         -1.07665       -0.88162        1.85872
H         -5.24435       -0.13462       -0.33120
H         -4.31612       -0.54084        1.12027
H         -3.99983       -1.39865       -0.39660
H         -1.18610        2.18489       -0.77895
H          0.85163        3.23755        0.24210
H          3.29462        3.13158        0.51594
H          4.49289        0.88281        0.43864
H          0.23762       -1.65276       -1.46332
H          2.75628       -2.15461       -1.86623
H         -0.82437       -1.75858        2.26512
