25
69807665.log	Energy: -414668.6750964
C         -1.35926        2.30388        0.00209
C         -2.64490        1.52147       -0.01420
C         -2.62895        0.18712       -0.00288
C         -1.37386       -0.64830        0.00634
C         -1.79714       -1.94438        0.00767
N         -3.25914       -1.94630        0.00101
N         -3.73148       -0.78144       -0.00548
C         -0.13631        0.05056        0.00576
C          1.22241       -0.35878        0.00389
C          1.84463       -1.63637       -0.00144
C          3.21569       -1.69503       -0.00659
C          4.01757       -0.50633       -0.00593
C          3.44715        0.74133       -0.00004
C          2.02855        0.83928        0.00355
C          1.15011        1.95261        0.00409
N         -0.13952        1.46263        0.00493
H         -1.32917        2.98170       -0.89106
H         -1.34472        2.96460        0.90885
H         -3.56637        2.10811       -0.02836
H         -1.26599       -2.87669        0.01278
H          1.22749       -2.53133       -0.00156
H          3.72824       -2.65640       -0.01157
H          5.10037       -0.62151       -0.01032
H          4.04576        1.64845        0.00085
H          1.40120        2.99644        0.00331
