30
698272.log	Energy: -499277.1031911
C         -1.12592       -0.95007        0.57244
C         -2.56748       -0.76879        0.18455
C         -3.53688       -1.73527       -0.03188
C         -4.82936       -1.31374       -0.39322
C         -5.12773        0.04203       -0.52947
C         -4.14398        1.02283       -0.30849
C         -2.87061        0.60724        0.04716
C         -1.65266        1.44137        0.33522
N         -0.57560        0.44966        0.70189
C          0.74880        0.70220        0.27873
C          1.69185       -0.34792        0.20429
C          3.02560       -0.04676       -0.07658
C          3.47049        1.26036       -0.28946
C          2.53281        2.29632       -0.21054
C          1.19499        2.03326        0.06718
N          4.00592       -1.16456       -0.15291
O          3.58665       -2.30031        0.00800
O          5.17237       -0.88286       -0.37436
H         -0.57789       -1.56649       -0.17253
H         -1.02206       -1.44269        1.56630
H         -3.31280       -2.79415        0.07337
H         -5.60371       -2.06014       -0.56757
H         -6.13419        0.35080       -0.80968
H         -4.38532        2.07747       -0.41439
H         -1.37981        2.07642       -0.53397
H         -1.80735        2.10703        1.21461
H          1.40368       -1.38905        0.37192
H          4.52146        1.46176       -0.50769
H          2.85904        3.32611       -0.36870
H          0.49506        2.86420        0.13669
