15
69845.log	Energy: -496337.2909974
C          1.95986        1.58597        0.00946
C          0.66075        1.98799       -0.01397
C         -0.38299        0.99598       -0.01286
N         -1.69621        1.18727       -0.01388
S         -2.46216       -0.33496        0.00738
N         -1.04749       -1.27832        0.01996
C         -0.00765       -0.45719        0.00239
C          1.41588       -0.80873        0.00761
C          2.34806        0.20268        0.02892
N          1.76396       -2.15727       -0.08412
H          2.76587        2.32429        0.01323
H          0.36518        3.03535       -0.03179
H          3.41148       -0.02104        0.04240
H          1.05035       -2.85057        0.09551
H          2.69643       -2.43065        0.17942
