31
69848262.log	Energy: -486892.5075885
C          2.39847        1.95663        1.18303
C          2.87664        0.72047        0.51224
C          1.99426       -0.19551       -0.10407
N          2.42305       -1.33323       -0.72729
C          3.74812       -1.58703       -0.76596
C          4.69888       -0.72943       -0.17692
C          4.25417        0.42195        0.46337
C          0.51021       -0.01010       -0.14081
N          0.02888        1.15671       -0.44819
C         -1.39177        1.37806       -0.52061
O         -1.86099        2.48042       -0.39497
C         -2.24711        0.11510       -0.80773
C         -1.79705       -0.96688        0.14949
C         -2.67442       -1.62864        0.92939
C         -4.07918       -1.27377        0.92897
C         -4.51070       -0.22537        0.18502
N         -3.69923        0.43088       -0.76057
C         -0.32125       -1.23160        0.17239
H          1.59742        1.75409        1.90960
H          1.95598        2.65423        0.44350
H          3.19067        2.50126        1.71007
H          4.05103       -2.50463       -1.28352
H          5.75956       -0.96850       -0.22638
H          4.96944        1.10359        0.92557
H         -2.03642       -0.21687       -1.86700
H         -2.36327       -2.42878        1.60016
H         -4.75524       -1.85111        1.54930
H         -5.54801        0.12750        0.20774
H         -3.88391        1.43670       -0.87692
H         -0.06986       -2.03091       -0.57375
H         -0.00413       -1.66377        1.14680
