23
69914635.log	Energy: -403373.1720945
C          0.36144        1.58966       -0.21430
C         -0.94099        1.93479       -0.25519
C         -1.96386        0.91896       -0.11328
C         -3.30366        0.91924       -0.10425
C         -3.75782       -0.53862        0.08542
O         -4.87107       -0.96026        0.15333
N         -2.52757       -1.35856        0.17791
C         -1.50988       -0.54153        0.06927
C         -0.09101       -0.81769        0.10213
C          0.80707        0.19349       -0.03071
C          2.24088       -0.05479       -0.00452
C          3.23741        0.79864        0.49556
N          4.46486        0.16111        0.33776
C          4.25805       -1.08762       -0.26535
C          2.89294       -1.23984       -0.47998
H          1.14639        2.33841       -0.33336
H         -1.27157        2.96453       -0.39538
H         -4.02039        1.71021       -0.19944
H          0.21045       -1.85754        0.24705
H          3.13768        1.76862        0.94729
H          5.35348        0.53256        0.61246
H          5.06493       -1.75980       -0.49278
H          2.40311       -2.08095       -0.93099
