29
699496.log	Energy: -483767.6692656
C         -4.29554       -0.96885        0.00777
C         -3.65496       -2.24118        0.00188
C         -2.28546       -2.33774        0.00029
C         -1.49285       -1.14635       -0.00000
C         -2.13098        0.12804       -0.00281
C         -3.55234        0.18793        0.00758
C         -1.24639        1.27663       -0.00606
N          0.10232        1.14378       -0.01868
C          0.63143       -0.14693       -0.00075
N         -0.10685       -1.26968        0.00328
C          2.11606       -0.26203        0.00188
C          2.72654       -1.52614       -0.02225
C          4.12854       -1.59919       -0.01977
N          4.92429       -0.49903        0.00315
C          4.32297        0.71818        0.02878
C          2.92855        0.88204        0.02887
N         -1.76916        2.57802        0.10236
N         -0.94814        3.72566       -0.08055
H         -5.38425       -0.93012        0.01417
H         -4.27509       -3.13939        0.00175
H         -1.77060       -3.30057        0.00030
H         -4.04695        1.15919        0.02368
H          2.12115       -2.43599       -0.04104
H          4.64457       -2.56650       -0.03757
H          4.99414        1.58501        0.04973
H          2.48749        1.87923        0.05034
H         -2.70263        2.74482       -0.29734
H         -0.44583        3.90080        0.80306
H         -0.21263        3.56586       -0.78646
