29
699723.log	Energy: -416165.5246916
C         -2.45442       -2.16845        1.15797
C         -2.29538       -1.79095       -0.31295
N         -1.19783       -0.82763       -0.56294
C          0.16573       -1.17165       -0.30231
C          0.86356       -2.35686       -0.31688
C          2.27936       -2.28847       -0.12642
C          2.96889       -1.10879        0.06746
C          2.26444        0.13688        0.09039
C          0.88238        0.05823       -0.08006
C         -0.00829        1.17771       -0.08380
C          0.51676        2.43308        0.06137
C          1.93699        2.54966        0.23841
C          2.78424        1.46320        0.26057
C         -1.37332        0.59892       -0.27176
N         -2.57802        1.10132       -0.21526
N         -2.76369        2.47302       -0.12434
H         -1.54256       -2.62082        1.56638
H         -3.27059       -2.88698        1.29349
H         -2.68801       -1.29070        1.77403
H         -2.08585       -2.69511       -0.92967
H         -3.24049       -1.34136       -0.70387
H          0.38635       -3.31611       -0.47649
H          2.82735       -3.23277       -0.14187
H          4.04659       -1.10768        0.20139
H         -0.08915        3.33372        0.02842
H          2.34375        3.55508        0.35658
H          3.85574        1.59288        0.39911
H         -2.19618        2.94998        0.58125
H         -3.75570        2.63782        0.07705
