26
70026142.log	Energy: -427889.3253195
C          3.79519       -1.00774        0.02059
C          2.65291       -1.83453        0.01766
C          1.41242       -1.22344        0.00657
C          1.27147        0.20459       -0.00230
C         -0.16617        0.50888       -0.01753
C         -0.86203        1.66450       -0.05610
C         -2.31222        1.64388       -0.03761
C         -3.01581        0.47809        0.00812
C         -2.32004       -0.87415       -0.01968
O         -2.96483       -1.90230       -0.08460
C         -0.85357       -0.81151       -0.00068
C          0.05857       -1.82001        0.00799
N         -4.40593        0.41848        0.17671
C          2.41482        1.01111        0.00735
C          3.68973        0.37547        0.02118
N          2.33682        2.41793       -0.07672
H          4.78256       -1.47174        0.02569
H          2.75408       -2.91561        0.02406
H         -0.37756        2.63875       -0.09932
H         -2.81834        2.60682       -0.04057
H         -0.12811       -2.88253        0.01457
H         -4.84197       -0.47374       -0.03700
H         -4.94262        1.21409       -0.13078
H          4.58918        0.98756        0.01849
H          1.45832        2.83468        0.20623
H          3.13529        2.93449        0.26217
