27
70036914.log	Energy: -687510.7947079
C         -5.19939       -1.28955        0.89944
C         -4.63080       -1.22583       -0.50110
O         -3.17691       -1.02716       -0.43944
C         -2.72574        0.22540       -0.15727
O         -3.46846        1.17502        0.00040
C         -1.24769        0.27954       -0.10211
C         -0.49542        1.42631       -0.02161
C          0.91817        0.98328        0.00346
N          2.15966        1.30731        0.06225
C          2.86842       -0.02775        0.02655
N          2.10406       -1.10515       -0.04717
C          0.76704       -0.60748       -0.07129
N         -0.47408       -0.97392       -0.12711
S          4.57634        0.08447        0.08402
C          5.10018       -1.63322        0.05348
C         -0.91787        2.82682        0.03469
H         -4.63556       -1.99128        1.52959
H         -6.24685       -1.61265        0.89461
H         -5.15799       -0.30653        1.39230
H         -4.67021       -2.19306       -1.03694
H         -5.07274       -0.41665       -1.10841
H          4.86826       -2.15296        0.99452
H          4.62052       -2.20801       -0.75493
H          6.18727       -1.66098       -0.10413
H         -0.55707        3.32442        0.95208
H         -0.51987        3.41067       -0.81300
H         -2.02322        2.93004        0.02100
