30
70045.log	Energy: -532615.1074520
C         -3.14020       -2.31016       -1.09627
C         -2.62633       -1.97334        0.29795
N         -1.95385       -0.63414        0.31318
C         -2.88175        0.50043        0.60096
C         -2.47730        1.23863        1.86991
C         -0.63193       -0.50995       -0.01073
C          0.06661        0.72951       -0.22700
C          1.46999        0.78260       -0.12674
C          2.21197       -0.38301        0.01885
C          1.55318       -1.64611        0.00390
C          0.18792       -1.70559       -0.03225
N          3.66719       -0.33116        0.14182
O          4.19916        0.76811        0.14047
O          4.26514       -1.39237        0.24151
N         -0.56360        1.97272       -0.66082
O         -1.52333        1.90064       -1.41821
O         -0.07624        3.02310       -0.27537
H         -3.83917       -1.55310       -1.47668
H         -3.66831       -3.27236       -1.10191
H         -2.32587       -2.38037       -1.83099
H         -3.46225       -1.95597        1.03537
H         -1.92122       -2.76044        0.65879
H         -2.95036        1.18982       -0.27958
H         -3.91439        0.09455        0.71812
H         -1.45124        1.62913        1.83615
H         -3.13466        2.10315        2.04027
H         -2.53999        0.59786        2.75836
H          1.98378        1.75925       -0.18673
H          2.16671       -2.55655        0.02537
H         -0.30219       -2.68081       -0.05466
