21
70098456.log	Energy: -355837.0716208
C          3.10896       -0.77800        1.06304
C          2.17551       -0.80556       -0.10479
C          2.25853       -1.68975       -1.10085
C          1.12535        0.24539       -0.09262
C          1.40884        1.56717       -0.14991
C          0.38255        2.61175       -0.13810
C         -0.93686        2.34404       -0.06630
C         -1.37802        0.96425        0.00122
N         -2.54872        0.42034        0.07567
C         -2.34178       -1.07024        0.11407
O         -3.18607       -1.89566        0.17959
N         -0.85371       -1.32251        0.05160
C         -0.27522       -0.17001       -0.01430
H          3.77438       -1.65295        1.08024
H          2.55688       -0.78172        2.01478
H          3.74697        0.11541        1.05312
H          1.56962       -1.72007       -1.93387
H          3.00981       -2.46491       -1.14709
H          2.44523        1.91127       -0.21382
H          0.74524        3.64259       -0.19267
H         -1.70974        3.11669       -0.05703
