14
70123457.log	Energy: -283089.6675557
C         -1.39085        1.41976        0.00137
C         -2.49478        0.63593       -0.00144
N         -2.47000       -0.79428       -0.00213
C         -1.34224       -1.43606        0.00109
C         -0.03746       -0.73629        0.00160
N          1.17282       -1.20236        0.00009
C          2.08976       -0.00800       -0.00098
O          3.27664       -0.08167       -0.00044
C          1.18648        1.22721       -0.00081
C         -0.08529        0.79946        0.00130
H         -1.44304        2.50856        0.00443
H         -3.51778        1.03188       -0.00126
H         -1.33181       -2.53809        0.00324
H          1.60601        2.21545       -0.00138
