26
70144003.log	Energy: -313345.6323586
C          3.64506       -0.05803        0.89302
C          2.35938       -0.07833        0.19308
C          1.55002       -1.25858       -0.09715
C          0.43780       -0.68821       -0.77622
C         -0.53112        0.21435       -0.14417
C          0.26252        1.33185        0.16985
C          1.60574        1.04854       -0.32310
O          1.19487        0.27933       -1.55590
C         -1.97311       -0.06474        0.17127
C         -2.03802       -0.76764        1.54222
C         -2.77046        1.25096        0.21642
C         -2.55772       -0.98236       -0.91797
H          3.77966        0.86416        1.48265
H          4.47835       -0.08347        0.16526
H          3.78370       -0.91648        1.56598
H          1.73544       -2.26142        0.21089
H         -0.03627        2.21070        0.70531
H         -1.61259       -0.14427        2.33523
H         -3.07263       -0.99410        1.82004
H         -1.48538       -1.71319        1.53298
H         -2.64762        1.82203       -0.71162
H         -3.84150        1.06067        0.34341
H         -2.45402        1.89275        1.04429
H         -2.51106       -0.50663       -1.90494
H         -2.00929       -1.92836       -0.98827
H         -3.60625       -1.22397       -0.71747
