24
70148323.log	Energy: -450349.0535193
C         -2.09968        1.54169       -0.06753
C         -0.76245        2.21084       -0.02946
C          0.39565        1.51740       -0.00646
C          1.70596        2.18335        0.02793
C          2.87045        1.50489        0.03819
C          2.85803        0.05280        0.01891
N          3.85985       -0.80736        0.02175
C          3.26492       -2.12979       -0.00322
C          1.90072       -2.08173       -0.01963
C          1.52694       -0.66500       -0.00860
C          0.36877        0.02813       -0.01970
N         -0.88758       -0.65036       -0.04325
C         -1.97813        0.04110       -0.06651
C         -3.28360       -0.71398       -0.11868
O         -3.90683       -1.08438       -1.07860
O         -3.75402       -0.88831        1.15593
H         -2.66871        1.87841       -0.96806
H         -2.71338        1.86976        0.80756
H         -0.78820        3.30184       -0.02324
H          1.69211        3.27486        0.04315
H          3.84636        1.99511        0.05949
H          3.92754       -2.98110       -0.00483
H          1.18686       -2.88408       -0.03814
H         -4.60715       -1.40745        1.18453
