22
70163225.log	Energy: -436545.0570589
C         -2.70353       -1.69905        0.83016
N         -2.66515       -1.84437       -0.65465
N         -1.41607       -1.67339        0.04508
C         -0.67240       -0.43183       -0.02795
C          0.68431       -0.50474        0.02391
C          1.42715       -1.76184        0.12252
C          2.77381       -1.78472        0.06671
C          3.54676       -0.55648       -0.08960
C          2.94532        0.64744       -0.14980
C          1.48414        0.76712       -0.04662
N          0.95095        1.95746       -0.00432
C         -0.46387        2.14453        0.13036
O         -0.94324        3.18131        0.48407
C         -1.34915        0.89773       -0.21859
O         -2.48130        1.01033       -0.61087
H         -2.89192       -2.61592        1.40843
H         -3.09729       -0.79884        1.31082
H         -3.03290       -1.03674       -1.18987
H          0.83155       -2.67784        0.22602
H          3.33251       -2.72032        0.13141
H          4.63298       -0.65563       -0.15705
H          3.49817        1.58525       -0.26478
