32
70179765.log	Energy: -383234.4190951
C          3.37254       -2.18032       -0.28604
N          2.33697       -1.58310        0.61088
C          2.66158       -0.18046        1.01547
C          1.92459        0.86455        0.21489
C          0.73319        0.62757       -0.36936
C          0.19989       -0.73131       -0.30123
C          1.01031       -1.75425        0.07557
C         -1.19996       -0.98126       -0.67262
C         -2.19633       -0.12111       -0.42772
C         -3.62193       -0.38111       -0.80682
C         -4.55372       -0.38325        0.41787
N         -4.92065        1.01154        0.80823
O          2.66331        2.02211        0.20589
C          2.14458        3.13993       -0.55781
H          3.49676       -1.65206       -1.24317
H          3.10812       -3.22792       -0.50229
H          4.34006       -2.18990        0.24056
H          2.35024       -0.09171        2.08771
H          3.75733        0.00385        0.99583
H          0.16637        1.36657       -0.91950
H          0.69855       -2.79984        0.05591
H         -1.38430       -1.94182       -1.15914
H         -2.01744        0.83297        0.07015
H         -3.96002        0.39465       -1.53076
H         -3.72868       -1.34560       -1.34295
H         -5.50193       -0.90646        0.15618
H         -4.08619       -0.96178        1.24424
H         -5.38323        1.01075        1.71265
H         -4.08915        1.58650        0.90504
H          2.02891        2.85931       -1.60856
H          1.20068        3.48277       -0.12465
H          2.93474        3.88995       -0.43133
