26
70196944.log	Energy: -394061.1578977
C         -4.07598       -0.89906        0.11491
C         -3.00387       -1.39372        0.86551
C         -1.76197       -0.75570        0.81727
C         -1.59486        0.38611        0.01994
C         -2.67598        0.89049       -0.71994
C         -3.91206        0.24233       -0.67722
C         -0.29471        1.11182       -0.02965
O         -0.23571        2.32178       -0.13240
C          0.98463        0.30530        0.06433
C          1.07425       -0.90309       -0.52433
C          2.22836       -1.79527       -0.53738
C          3.51264       -1.44228       -0.37133
C          4.02531       -0.09832       -0.13197
C          3.35381        0.94968        0.37742
N          1.99901        0.96396        0.83821
H         -5.04248       -1.40166        0.15054
H         -3.13551       -2.27708        1.48892
H         -0.92676       -1.13919        1.40763
H         -2.54216        1.79360       -1.32042
H         -4.74987        0.62917       -1.25605
H          0.19982       -1.30232       -1.05442
H          1.97301       -2.84481       -0.71426
H          4.29154       -2.21249       -0.41824
H          5.08444        0.02875       -0.37478
H          3.87967        1.89818        0.56491
H          1.70351        1.91620        1.11241
