24
70211621.log	Energy: -450345.0312106
C          3.57894       -0.75414       -0.09427
C          2.90198        0.46024       -0.04196
C          1.49745        0.47189        0.02524
C          0.79639       -0.76375        0.05695
C         -0.66280       -0.81706        0.14570
C         -1.37746       -1.94046       -0.13870
C         -2.81341       -1.91709       -0.17294
C         -3.47292       -0.73347       -0.02144
N         -2.83916        0.43458        0.40032
C         -1.36103        0.45181        0.58331
C         -0.73593        1.64567       -0.15846
O         -1.36236        2.40053       -0.85177
C          0.79077        1.76349        0.07593
O          1.30641        2.83053        0.29511
N          1.47169       -1.95574        0.00358
C          2.82288       -1.94137       -0.07366
H          4.66408       -0.79095       -0.14934
H          3.44469        1.41151       -0.05367
H         -0.87260       -2.88039       -0.39274
H         -3.34723       -2.84319       -0.35958
H         -4.55869       -0.64489       -0.16003
H         -3.22128        1.32289        0.05271
H         -1.18669        0.59608        1.69249
H          3.30853       -2.92600       -0.11806
