16
70245532.log	Energy: -296692.2925491
C          2.56267        0.63408       -0.18552
C          1.39455        1.42512       -0.02382
C          0.19731        0.78106        0.10890
C         -1.21871        1.07484        0.25294
C         -2.19207        0.73176       -0.71553
C         -2.18126       -0.73467       -0.71284
C         -1.22022       -1.08034        0.26751
C          0.20639       -0.75586        0.11201
N          1.31283       -1.46042       -0.01030
C          2.49152       -0.75238       -0.17113
O         -1.54052        0.00347        1.22423
H          3.52549        1.13151       -0.30209
H          1.47057        2.51271        0.01629
H         -2.75576        1.35745       -1.37642
H         -2.73264       -1.36783       -1.37993
H          3.38564       -1.38028       -0.27475
