14
70273982.log	Energy: -233830.7613785
C          2.45010        0.14994       -0.13868
C         -2.44020        0.07463       -0.15298
C         -1.15277       -0.24777       -0.08812
N         -0.58594       -1.58717        0.17472
N          0.65577       -1.55945        0.17813
C          1.17006       -0.20139       -0.07540
N         -0.00734        0.65197       -0.34037
N          0.03566        1.88822        0.36632
H          3.26219       -0.55220        0.00508
H          2.76704        1.16800       -0.33864
H         -3.22635       -0.66208       -0.01841
H         -2.80717        1.06626       -0.37282
H         -0.65792        1.94627        1.11826
H         -0.18795        2.62634       -0.31394
