28
70286257.log	Energy: -531918.8623378
C         -2.95009       -2.42109        0.81248
O         -2.49913       -1.69802       -0.36624
C         -1.26421       -1.07727       -0.19390
C         -1.17161        0.30980       -0.10091
C          0.12587        0.94104        0.00026
C          1.29208        0.12608        0.01462
C          1.14628       -1.31543       -0.12089
C         -0.09975       -1.88663       -0.21724
N          2.31547       -2.16711       -0.06758
C          3.58144       -1.51948       -0.08268
C          3.70557       -0.18433        0.08591
N          2.55303        0.65589        0.14916
N          0.20052        2.38211        0.08334
O         -0.81236        3.05155        0.07182
O          1.32967        2.89219        0.16746
O         -2.18813        1.20816       -0.12086
C         -3.55153        0.72915       -0.30069
H         -2.27518       -3.25380        1.02458
H         -3.93535       -2.78243        0.49842
H         -3.02291       -1.74750        1.66982
H         -0.23253       -2.96533       -0.32055
H          2.25176       -2.98163       -0.68453
H          4.44503       -2.18690       -0.14850
H          4.66146        0.32949        0.18783
H          2.68617        1.68384        0.24121
H         -3.62046        0.07112       -1.17434
H         -3.88091        0.21861        0.60698
H         -4.08496        1.67614       -0.45446
