23
70372584.log	Energy: -343540.3517088
C         -3.28467        0.48255        1.13665
C         -2.02343        0.54954        0.71232
C         -1.44688       -0.47202       -0.18982
O         -1.84174       -1.62214       -0.23599
C         -0.24602       -0.07837       -1.09784
C         -0.13271        1.40764       -1.26592
C          0.77166        2.12274       -0.56778
C          1.66405        1.48408        0.36551
C          1.73228        0.11300        0.42404
N          1.03752       -0.66192       -0.57139
N          1.06740       -2.07176       -0.36761
N          2.50645       -0.54972        1.39308
H         -3.96460       -0.31421        0.84816
H         -3.72582        1.21597        1.80039
H         -1.34081        1.35289        1.00828
H         -0.41783       -0.55915       -2.10204
H         -0.82746        1.85115       -1.96787
H          0.85617        3.20430       -0.67869
H          2.26800        2.10571        1.01188
H          0.16717       -2.44632       -0.02439
H          1.24098       -2.50744       -1.28292
H          3.32086       -0.05341        1.72867
H          2.67194       -1.54344        1.26494
