22
70410425.log	Energy: -364107.3109544
C          3.37163       -0.04629        0.09498
C          2.57050        1.04627        0.09700
C          1.12782        0.90804        0.01545
C          0.25709        1.95514        0.21871
N         -1.09188        1.88055       -0.13525
N         -1.64383        0.63456       -0.58783
C         -0.78331       -0.53238       -0.31973
C          0.56842       -0.42986       -0.15732
C          1.46966       -1.56954       -0.09083
C          2.80566       -1.38101        0.02192
N         -1.62639       -1.67129        0.02967
N         -2.85515       -1.07933        0.52319
N         -2.90433        0.30972        0.08541
H          4.45487        0.03874        0.14824
H          2.97758        2.05496        0.15042
H          0.59304        2.93018        0.58753
H         -1.74609        2.47062        0.40288
H          1.02361       -2.56254       -0.14276
H          3.49654       -2.22289        0.05961
H         -1.85286       -2.24030       -0.80934
H         -2.77518       -1.06155        1.56720
H         -3.64522        0.37108       -0.65115
