32
70470509.log	Energy: -430068.7912304
C          4.20774       -1.30763        1.35993
C          4.18975       -0.12783        0.37843
C          5.48906       -0.07138       -0.43681
N          3.02479       -0.30957       -0.55707
C          1.75730        0.25759       -0.00830
C          0.60250       -0.14672       -0.94849
C         -0.70659        0.30111       -0.44154
C         -1.86914       -0.35692       -0.26124
C         -2.29888       -1.72545       -0.45680
C         -3.57640       -2.07249       -0.18830
C         -4.55366       -1.10347        0.31107
C         -4.24059        0.19090        0.53268
C         -2.88914        0.65347        0.26158
N         -2.38162        1.85551        0.39803
C         -0.96766        1.77919       -0.01752
O         -0.19627        2.68916       -0.01337
H          4.24296       -2.26430        0.82247
H          3.30516       -1.32720        1.97970
H          5.07487       -1.26070        2.02468
H          4.09643        0.82497        0.96609
H          5.60121       -0.95883       -1.07277
H          5.53191        0.81107       -1.08288
H          6.36387       -0.03600        0.22221
H          3.22847        0.11819       -1.46663
H          1.58394       -0.17401        1.00259
H          1.78158        1.36530        0.11088
H          0.77223        0.28461       -1.96230
H          0.62216       -1.25110       -1.09341
H         -1.55911       -2.43908       -0.82168
H         -3.92988       -3.09417       -0.33156
H         -5.56064       -1.48199        0.50268
H         -4.95283        0.92625        0.91191
