24
70499014.log	Energy: -390911.0255837
C         -3.40152       -0.68846       -0.58767
C         -2.80635        0.51587       -0.70744
C         -1.48826        0.77717       -0.11075
C         -1.10877        2.06440        0.09322
N          0.07552        2.49050        0.81732
C          1.25498        2.02987        0.10507
C          1.55089        0.72047       -0.10166
C          0.68630       -0.41644        0.25138
C         -0.68401       -0.39864        0.26033
C         -1.45058       -1.62016        0.53798
C         -2.72895       -1.76273        0.12764
C          1.44090       -1.67202        0.46551
N          2.66549       -1.85965        0.05961
C          3.30831       -0.76140       -0.60973
N          2.82688        0.44748       -0.69379
H         -4.38562       -0.89418       -1.00508
H         -3.28746        1.34669       -1.22448
H         -1.69224        2.92038       -0.26747
H          0.06871        2.10874        1.78002
H          1.89839        2.84825       -0.23714
H         -0.93838       -2.42019        1.07543
H         -3.29442       -2.67617        0.31342
H          0.93071       -2.49827        0.98630
H          4.28733       -1.01124       -1.04626
