24
70536460.log	Energy: -450311.2721342
C         -3.31250       -1.65530        0.03157
C         -1.96394       -1.77618        0.02117
C         -1.10306       -0.60533       -0.01852
C          0.27242       -0.64230       -0.01291
C          1.05665       -1.87291        0.07038
C          2.39912       -1.86670        0.05978
C          3.19239       -0.60524       -0.02425
O          4.40688       -0.62039       -0.05541
C          2.40506        0.63849       -0.04924
C          1.05318        0.60500       -0.05682
N          0.25993        1.79887       -0.23109
N         -1.06922        1.84749       -0.01599
C         -1.76163        0.70975       -0.03590
C         -3.22129        0.78162       -0.03628
C         -3.95492       -0.35274        0.00206
O          0.91404        2.92638        0.29168
H         -3.96065       -2.53303        0.05985
H         -1.47992       -2.75467        0.03789
H          0.49341       -2.80851        0.12925
H          2.99417       -2.77983        0.10787
H          2.97308        1.56989       -0.05162
H         -3.67046        1.77687       -0.06430
H         -5.04518       -0.32728        0.00868
H          0.42431        3.73517       -0.09455
