32
70587616.log	Energy: -453600.5232317
C          3.52398       -2.10203       -0.30976
C          2.97891       -0.73184       -0.07756
C          1.57679       -0.48196       -0.19595
C          1.11485        0.83663        0.06595
C          2.01521        1.86901        0.39359
C          3.37542        1.59986        0.48879
C          3.85197        0.30522        0.26258
N         -0.27712        1.17647        0.01136
C         -0.86495        2.34842       -0.49675
C         -2.25106        2.16097       -0.57048
C         -2.55097        0.84543       -0.12503
C         -1.30796        0.26786        0.26008
C         -1.29927       -1.15997        0.44739
C         -2.51812       -1.42494        1.05721
C         -3.70634       -1.47941        0.17534
C         -3.84435        0.08060       -0.14205
C         -0.38963       -1.92192       -0.38706
N          0.83904       -1.60752       -0.66122
H          3.15782       -2.80585        0.45349
H          4.61866       -2.13784       -0.30345
H          3.17968       -2.50306       -1.27943
H          1.64326        2.87379        0.58987
H          4.07161        2.39756        0.74675
H          4.91936        0.10492        0.34999
H         -0.28683        3.20954       -0.77644
H         -2.95998        2.88766       -0.91350
H         -2.69573       -1.01758        2.05852
H         -4.62685       -1.85560        0.64517
H         -3.55498       -2.04544       -0.75935
H         -4.53728        0.51059        0.60700
H         -4.32575        0.19463       -1.13176
H         -0.76349       -2.86753       -0.81563
