19
70610875.log	Energy: -355144.4873917
C          2.51088       -1.81331        0.00039
C          3.22987       -0.62231        0.00256
C          2.56685        0.62552        0.00016
C          1.18743        0.62026       -0.00079
C          0.44773       -0.59982       -0.00143
C          1.09771       -1.81816       -0.00177
C         -1.00515       -0.26778       -0.00038
C         -2.04517       -1.12739       -0.00126
C         -3.40335       -0.72226        0.00029
N         -4.51739       -0.40613        0.00196
N         -1.07785        1.15317        0.00124
C          0.22609        1.76748       -0.00046
O          0.38467        2.95875       -0.00094
H          3.04101       -2.76773        0.00170
H          4.32063       -0.64301        0.00486
H          3.13026        1.56014       -0.00014
H          0.55088       -2.75940       -0.00381
H         -1.87956       -2.21042       -0.00163
H         -1.95126        1.66782        0.00027
