27
70612900.log	Energy: -428452.9192386
C         -3.98926       -0.18744       -0.00203
C         -3.59457       -1.51896        0.00300
C         -2.22511       -1.87150        0.00637
C         -1.29105       -0.85827        0.00344
C         -1.69868        0.53065       -0.00250
C         -3.03807        0.85914       -0.00524
C         -0.48821        1.38759       -0.00437
C         -0.22343        2.72905       -0.00687
C          1.15325        3.14559       -0.00292
C          2.21048        2.26475        0.00519
C          1.96684        0.84809        0.00567
C          2.90127       -0.22371        0.01561
C          2.42491       -1.53960        0.00648
N          1.05546       -1.90846        0.01839
C          0.19328       -0.90338        0.00418
C          0.62141        0.47637       -0.00038
N          3.29600       -2.63432       -0.08730
H         -5.04906        0.06664       -0.00487
H         -4.34273       -2.31063        0.00490
H         -1.91840       -2.91745        0.00992
H         -3.36570        1.89618       -0.00969
H         -1.00623        3.48035       -0.01061
H          1.34604        4.22008       -0.00625
H          3.23832        2.61887        0.00788
H          3.96315       -0.01183        0.00673
H          2.90211       -3.55392        0.06930
H          4.23391       -2.51906        0.26113
