30
707102.log	Energy: -511986.8478983
C          6.86923       -0.29775        0.27609
C          5.50007       -0.87758       -0.01758
O          4.60233        0.25257        0.22825
C          3.25413        0.06145        0.04943
C          2.49843        1.23359        0.27467
C          1.12015        1.19260        0.13531
C          0.48818       -0.01696       -0.22828
C          1.24974       -1.17670       -0.45065
C          2.63996       -1.14330       -0.31219
N         -0.93798       -0.12002       -0.38419
C         -1.85384        0.92842       -0.23366
O         -1.55191        2.06805        0.05714
C         -3.27494        0.51434       -0.49632
C         -4.00730       -0.15199        0.39502
C         -5.42092       -0.48937        0.11277
O         -6.07191       -0.35596       -0.89645
O         -5.98915       -1.04789        1.23419
H          7.04622        0.61598       -0.31049
H          7.66596       -1.01195        0.04066
H          6.96653       -0.01147        1.33238
H          5.38497       -1.18983       -1.06966
H          5.22641       -1.69773        0.66769
H          3.01300        2.15245        0.55400
H          0.52477        2.09841        0.30671
H          0.77087       -2.11327       -0.73185
H          3.21567       -2.04643       -0.48597
H         -1.28570       -1.04656       -0.63866
H         -3.67054        0.85358       -1.46401
H         -3.63670       -0.47257        1.37586
H         -6.94780       -1.28516        1.10001
