37
70864690.log	Energy: -398253.4722113
C          0.50465        2.59075        0.67134
C         -0.35898        1.49183        0.15613
C          0.09726        0.31295       -0.32821
C         -0.93305       -0.67240       -0.84239
H         -0.51510       -1.59640       -1.24616
C         -1.91278        0.14842       -1.74423
C         -2.62424        0.55468       -0.41722
H         -3.70454        0.70889       -0.44855
C         -1.85762        1.75028        0.18305
C         -2.11381       -0.80441        0.20383
C         -3.04320       -1.97709       -0.11578
C         -1.77601       -0.83980        1.68549
C          1.50090       -0.05668       -0.45949
C          2.30090       -0.08128       -1.60952
C          3.60101       -0.51254       -1.22967
C          3.59210       -0.75381        0.14556
N          2.30384       -0.47041        0.61431
C          1.86422       -0.60501        2.00638
H          0.27954        2.83018        1.71792
H          0.36170        3.51159        0.08717
H          1.57603        2.34619        0.60705
H         -1.46399        0.95625       -2.32638
H         -2.52089       -0.45534       -2.42258
H         -2.19474        1.94726        1.21705
H         -2.08634        2.66584       -0.39587
H         -2.56602       -2.93374        0.12443
H         -3.97124       -1.91412        0.46244
H         -3.32382       -2.01652       -1.17404
H         -1.07796       -0.05143        1.98412
H         -2.67944       -0.71805        2.29401
H         -1.31690       -1.79708        1.95765
H          1.98515        0.17852       -2.59806
H          4.43735       -0.63087       -1.88711
H          4.38339       -1.09249        0.78274
H          1.09653       -1.39678        2.09686
H          2.70698       -0.86490        2.66767
H          1.41934        0.34064        2.36780
