30
70909784.log	Energy: -496917.3630918
C          0.65272       -1.97948        0.76776
C         -0.11066       -2.93737       -0.13903
O         -1.55385       -2.70320       -0.10304
C         -1.95011       -1.39605       -0.09496
C         -1.06542       -0.29626        0.12957
C          0.36933       -0.54951        0.38637
C          1.29177        0.42041        0.29833
C          2.75753        0.23411        0.56100
C          3.49882       -0.43086       -0.65388
N          4.56476        0.52195       -1.05808
C          4.50640        1.57423       -0.29081
N          3.42312        1.58250        0.65678
N         -1.53126        0.97361        0.13627
C         -2.86291        1.17874       -0.07095
C         -3.78843        0.13525       -0.28512
C         -3.32166       -1.17602       -0.29727
C         -3.30099        2.54764       -0.05694
N         -3.66397        3.64456       -0.04757
H          0.35533       -2.13311        1.82963
H          1.73475       -2.21341        0.72346
H          0.19259       -2.85058       -1.19826
H         -0.05875       -3.98990        0.19566
H          1.00045        1.44564        0.01974
H          2.91569       -0.35228        1.49819
H          3.95187       -1.40525       -0.39421
H          2.81696       -0.59569       -1.51394
H          5.15445        2.44696       -0.36434
H          3.59559        1.93377        1.59142
H         -4.84547        0.35457       -0.44019
H         -3.98972       -2.02254       -0.45911
