28
71147947.log	Energy: -430980.8146253
C          4.02260       -0.76847        0.51112
C          3.28199       -1.18619       -0.52558
C          2.02728       -0.47056       -0.96725
C          0.82000       -1.25231       -0.51911
C         -0.36320       -0.66148       -0.25310
C         -1.54695       -1.43923        0.11376
C         -2.75054       -0.83565        0.23931
C         -2.90120        0.61581        0.02038
C         -1.83151        1.39641       -0.25516
C         -0.49119        0.81428       -0.33648
C          0.60940        1.58348       -0.46382
C          2.00398        1.01862       -0.50938
C          2.68578        1.24618        0.82029
C          3.64375        0.42345        1.27137
O         -4.19459        1.04669        0.12770
O         -3.92429       -1.45762        0.56781
H          4.91991       -1.29424        0.83221
H          3.52793       -2.08085       -1.09208
H          2.00254       -0.46255       -2.09300
H          0.95479       -2.32930       -0.44917
H         -1.41459       -2.50557        0.27129
H         -1.92165        2.46659       -0.41530
H          0.55083        2.66816       -0.50699
H          2.59553        1.59861       -1.27198
H          2.36899        2.12914        1.37060
H          4.16220        0.59475        2.21221
H         -4.26567        2.02713       -0.01676
H         -3.79080       -2.43051        0.71689
