27
71222257.log	Energy: -436154.5244901
C         -0.38771       -0.51879        2.00074
C          0.11020       -0.07135        0.62495
C          0.22543        1.49633        0.55307
C         -0.93986        1.95383       -0.35809
N         -1.69484        0.72771       -0.78809
N         -0.84556       -0.39482       -0.53833
C         -1.52061       -1.66550       -0.39785
C         -2.86365       -1.76974       -0.32050
C         -3.66110       -0.55874       -0.20591
C         -3.05819        0.64542       -0.32662
C          1.55083        1.97161        0.00238
N          2.55851        1.21608       -0.29091
C          2.40756       -0.20927       -0.08202
N          1.34751       -0.82483        0.33825
C          3.61407       -0.95470       -0.36768
N          4.57624       -1.54924       -0.59628
H         -0.43067       -1.61800        2.07142
H         -1.39622       -0.14244        2.20822
H          0.27799       -0.19012        2.80740
H          0.10058        1.92904        1.57488
H         -0.56308        2.42459       -1.29638
H         -1.58526        2.69846        0.14395
H         -0.82237       -2.50806       -0.39672
H         -3.37571       -2.72740       -0.33141
H         -4.72509       -0.65806       -0.01373
H         -3.58420        1.59390       -0.22619
H          1.64922        3.05918       -0.14878
