27
71328571.log	Energy: -441051.3424885
C          4.32512        0.76095        0.23877
C          3.16680        1.45301        0.26638
C          1.88267        0.78396        0.07813
C          0.69440        1.43625        0.06127
C         -0.55696        0.71291       -0.15271
C         -1.74975        1.32689       -0.28378
C         -2.99771        0.55642       -0.62596
C         -2.95851       -0.92889       -0.16139
C         -1.59070       -1.53283       -0.23742
C         -0.47400       -0.77110       -0.22666
N          0.79914       -1.40696       -0.25816
C          1.88877       -0.69244       -0.11620
C          3.19195       -1.37369       -0.14479
C          4.33593       -0.68141        0.02378
O         -3.45321       -0.96061        1.19183
O         -4.13428        1.20687       -0.06512
H          5.28884        1.25110        0.37478
H          3.14493        2.53138        0.42547
H          0.62856        2.51788        0.19043
H         -1.88915        2.40389       -0.18683
H         -3.17437        0.62113       -1.73085
H         -3.72558       -1.52531       -0.70993
H         -1.54091       -2.62212       -0.25650
H          3.17131       -2.45412       -0.30523
H          5.30913       -1.17411        0.00539
H         -2.72462       -0.79928        1.83208
H         -4.33045        0.82808        0.83801
