18
71359010.log	Energy: -310327.2876190
C          2.03585       -0.00260        1.41897
C          1.51372        0.83346        0.24698
C          0.02018        0.70978        0.11865
C         -1.14115        1.54332        0.01924
C         -2.19284        0.70282       -0.07026
C         -2.19283       -0.70247       -0.07393
C         -1.14188       -1.54350        0.01913
C          0.01997       -0.71066        0.11733
C          1.51358       -0.83381        0.24464
C          2.41128       -0.67561       -0.97278
C          2.41228        0.67841       -0.97032
O         -3.44579        0.00089       -0.18450
H          1.46598       -0.00369        2.35062
H          3.10925       -0.00252        1.61767
H         -1.12401        2.62153        0.01951
H         -1.12619       -2.62173        0.01651
H          2.84450       -1.44855       -1.56024
H          2.84778        1.45294       -1.55404
