23
71356321.log	Energy: -405791.2147951
C          2.90636       -1.79641        0.00400
C          3.67665       -0.68482       -0.00096
O          3.16383        0.58996       -0.00293
C          1.77254        0.75316       -0.00215
C          1.33473        2.04068       -0.00525
C         -0.08388        2.26943       -0.00107
C         -0.98162        1.24045        0.00291
C         -2.42312        1.49357        0.00759
C         -3.32342        0.49795        0.00129
C         -2.90662       -0.92628       -0.00389
O         -3.71458       -1.83659       -0.00536
C         -1.44992       -1.17470       -0.00182
C         -0.54496       -0.16760        0.00043
C          0.90778       -0.42083        0.00153
C          1.47237       -1.66359        0.00457
H          3.34287       -2.79455        0.00635
H          4.76110       -0.60011       -0.00087
H          2.01857        2.88442       -0.00838
H         -0.41727        3.31051        0.00069
H         -2.73655        2.54044        0.01568
H         -4.39927        0.66741        0.00301
H         -1.17201       -2.22648       -0.00151
H          0.86716       -2.57470        0.00827
