29
713501.log	Energy: -667475.0775404
C          4.79580       -1.63347        0.07297
C          3.63151       -0.69964        0.03522
C          2.32326       -1.21808       -0.00641
C          1.23336       -0.35515       -0.03875
C          1.42709        1.03719       -0.02735
C          2.72954        1.55927        0.01809
C          3.82249        0.68820        0.04763
N          0.32577        1.95149       -0.06218
C         -1.01942        1.59250       -0.02303
C         -1.43364        0.29333       -0.02152
S         -0.35995       -1.08430       -0.11541
C         -2.81734       -0.13533        0.03954
O         -3.83914        0.52010        0.12615
O         -2.86078       -1.51587       -0.02058
C         -4.17820       -2.12274        0.04640
C         -1.95299        2.75830        0.00882
H          4.80124       -2.22256        1.00232
H          5.76101       -1.11425        0.01557
H          4.76546       -2.34764       -0.76286
H          2.17153       -2.29917       -0.01292
H          2.90050        2.63332        0.02863
H          4.82986        1.10009        0.08118
H          0.56412        2.94324       -0.05275
H         -4.58682       -1.98005        1.05116
H         -4.83582       -1.67762       -0.70696
H         -3.96396       -3.17548       -0.16432
H         -1.76133        3.43753        0.85034
H         -1.92270        3.34049       -0.92339
H         -3.01369        2.43019        0.12160
