20
71363474.log	Energy: -474481.9850424
C          3.86838        0.42918       -0.01888
C          3.83964       -0.95915       -0.20912
C          2.64690       -1.65543        0.02479
C          1.46399       -0.90596        0.14254
C          1.45127        0.50994        0.08482
C          2.68909        1.16841        0.09934
C          0.19410        1.32668       -0.03769
C         -1.04137        0.52833        0.09590
C         -1.01787       -0.86540        0.05872
C          0.17672       -1.40195        0.45191
O          0.22956        2.50454       -0.30910
C         -2.43233       -1.36440       -0.09391
O         -2.85979       -2.46413       -0.25978
O         -3.24629       -0.26414       -0.02802
C         -2.43898        0.98905        0.08412
O         -3.03648        2.00342        0.11645
H          4.82425        0.95528       -0.02716
H          4.75281       -1.50731       -0.43131
H          2.60872       -2.74049        0.04002
H          2.72092        2.25933        0.16679
