20
71403973.log	Energy: -275075.6230718
C          3.45182       -0.69686        0.00285
C          2.16867       -0.29036        0.00003
C          1.00034       -1.15185       -0.00069
C         -0.27457       -0.65973       -0.00103
C         -1.45053       -1.52509       -0.00147
C         -2.69915       -1.00197       -0.00060
C         -2.91129        0.43301        0.00219
C         -1.85637        1.28416        0.00234
C         -0.49659        0.78079       -0.00116
C          0.59955        1.62003       -0.00082
N          1.88700        1.12279       -0.00236
H          4.30565       -0.04898        0.00416
H          3.72701       -1.73610        0.00378
H          1.19595       -2.22209        0.00074
H         -1.27876       -2.60006       -0.00147
H         -3.58280       -1.63999       -0.00157
H         -3.93692        0.79381        0.00448
H         -1.99599        2.36426        0.00009
H          0.49140        2.71072       -0.00114
H          2.67415        1.76610       -0.00246
