16
71404880.log	Energy: -307049.2468163
C         -0.72081       -1.65695       -0.08039
C         -1.45072       -0.51293       -0.01518
C         -0.77867        0.82868        0.01286
O         -1.38474        1.86959        0.01869
C          0.77724        0.82961       -0.01989
O          1.38443        1.86667       -0.10211
C          1.45166       -0.51128       -0.00038
C          0.72432       -1.65712       -0.06492
N          2.84681       -0.48053        0.19031
N         -2.85077       -0.48707        0.14618
H         -1.20729       -2.63260       -0.11607
H          1.21113       -2.63290       -0.07959
H          3.35926       -1.28928       -0.12990
H          3.30166        0.39329       -0.05618
H         -3.35676       -1.27560       -0.23001
H         -3.29587        0.40016       -0.06889
