20
71401547.log	Energy: -311295.5978063
C         -3.04540        1.35468        0.01426
C         -1.86989        0.70760        0.00149
C         -0.58617        1.40168       -0.00425
C          0.59741        0.73769       -0.00378
C          1.87945        1.44445       -0.00764
C          3.05080        0.77452       -0.00211
C          3.07617       -0.68221        0.00537
C          1.93203       -1.39741        0.00662
C          0.62224       -0.74008        0.00187
C         -0.53304       -1.44607        0.00267
C         -1.85570       -0.80049       -0.00395
O         -2.89172       -1.43833       -0.01307
H         -3.14401        2.43151        0.02002
H         -3.99389        0.81874        0.01947
H         -0.62310        2.49309       -0.00838
H          1.84356        2.53404       -0.01388
H          4.00928        1.29183       -0.00390
H          4.05395       -1.16476        0.00917
H          1.93539       -2.48781        0.01211
H         -0.55487       -2.53619        0.00665
