26
71438666.log	Energy: -406978.7675696
C          3.22858       -1.14476        0.32373
C          2.40727       -2.12080       -0.13265
C          1.05297       -2.02277       -0.60500
C          0.25273       -0.93524       -0.65091
C         -1.11567       -0.91175       -1.20210
C         -2.15104       -0.65248       -0.36234
C         -2.73612        0.67242       -0.60935
C         -1.81691        1.66636       -0.55476
C         -0.38620        1.52343       -0.25273
C          0.49961        0.44397       -0.24002
C          1.81507        0.93032        0.24817
C          2.96597        0.25941        0.48043
C          1.64318        2.37602        0.48055
C          0.35896        2.71456        0.18912
C         -2.37517       -1.34299        0.93294
O         -3.37887       -1.19293        1.59539
H          4.24417       -1.44110        0.62567
H          2.81233       -3.14417       -0.16795
H          0.63405       -2.97223       -0.97019
H         -1.17242       -0.65317       -2.26567
H         -3.79925        0.80951       -0.75267
H         -2.14149        2.70438       -0.68466
H          3.82698        0.84001        0.84784
H          2.43252        3.01407        0.83089
H         -0.09013        3.69011        0.26136
H         -1.57521       -2.03809        1.24173
