28
715956.log	Energy: -498549.2457342
C          4.66913       -1.34724       -0.19402
C          3.48289       -2.09811       -0.35310
C          2.22825       -1.50602       -0.27930
C          2.17833       -0.12518       -0.03347
C          3.37533        0.65218        0.10866
C          4.62553        0.02263        0.03156
C          2.98101        2.03199        0.30476
C          1.61185        2.08987        0.27598
N          1.07653        0.77512        0.07217
C         -0.30759        0.47220        0.05051
C         -1.22614        1.46331       -0.37149
C         -2.58529        1.18061       -0.39319
C         -3.04017       -0.08896        0.00649
C         -2.13500       -1.07723        0.43059
C         -0.77428       -0.79814        0.45495
N         -4.48140       -0.38497       -0.02070
O         -5.23609        0.50280       -0.38549
O         -4.83568       -1.50176        0.32355
H          5.62818       -1.85918       -0.25653
H          3.56104       -3.16962       -0.54029
H          1.32340       -2.09221       -0.41771
H          5.53759        0.60567        0.14442
H          3.66611        2.84630        0.44635
H          0.95881        2.93823        0.39704
H         -0.87347        2.44167       -0.69862
H         -3.31030        1.93474       -0.72427
H         -2.51301       -2.05812        0.74450
H         -0.07323       -1.55834        0.80674
