37
7159734.log	Energy: -480831.3282542
C          2.38849       -0.59668        1.65765
C          2.70887       -0.40226        0.16807
C          1.71868       -1.24045       -0.69454
C          0.35563       -0.65375       -0.62818
C          0.06352        0.66988       -0.43245
C         -1.37006        1.21272       -0.56064
H         -1.32643        2.20292       -1.05906
C         -2.33574        1.29383        0.67855
C         -3.53820        0.25981        0.71433
C         -3.29268       -1.22549        0.17916
C         -1.85904       -1.02428       -0.27135
C         -1.99836        0.09318       -1.37213
O         -0.62609       -1.68495       -0.77100
O         -1.30516       -0.80803        1.10351
C          1.14874        1.62907       -0.17737
O          0.95429        2.81169        0.02271
C          2.57002        1.08863       -0.21248
C          4.14232       -0.87421       -0.12255
H          1.36752       -0.26667        1.89700
H          3.06656       -0.01675        2.29351
H          2.47545       -1.64386        1.96183
H          2.05953       -1.27384       -1.75120
H          1.71261       -2.29883       -0.36171
H         -2.77269        2.30420        0.71933
H         -1.73523        1.17542        1.60306
H         -4.37830        0.68437        0.14204
H         -3.85781        0.18034        1.76671
H         -3.41126       -1.95822        0.99143
H         -4.00119       -1.49742       -0.61422
H         -1.46724       -0.17430       -2.30118
H         -3.02726        0.29119       -1.70463
H         -0.84058       -1.62546        1.37577
H          2.97217        1.26773       -1.23039
H          3.20264        1.71120        0.45310
H          4.42011       -0.73206       -1.17203
H          4.87216       -0.32288        0.48204
H          4.27179       -1.93682        0.11029
