26
71776238.log	Energy: -448683.7039796
C         -3.82129       -1.36845        0.16043
N         -2.67998       -0.46222        0.01583
C         -1.31721       -0.82571        0.02700
C         -0.57676        0.40471       -0.07701
C          0.83808        0.39880       -0.08462
C          1.55219        1.68058       -0.17280
C          2.45678        2.09402        0.71335
C          3.86297       -0.34482       -0.17174
O          4.96542        0.04587       -0.26057
N          2.85337       -1.05139       -0.06056
C          1.45468       -0.85860       -0.02036
C          0.70894       -2.07546        0.07430
C         -0.67064       -2.07133        0.10180
N         -1.46809        1.48830       -0.17231
C         -2.71407        0.95201       -0.10312
N         -3.93986        1.66671       -0.05679
H         -4.68791       -0.83409        0.59587
H         -3.57280       -2.20506        0.83862
H         -4.12003       -1.78869       -0.81658
H          1.24078        2.30445       -1.01896
H          2.95486        3.05141        0.64142
H          2.75166        1.53208        1.58826
H          1.26027       -3.01682        0.12537
H         -1.24028       -2.99362        0.17636
H         -3.78604        2.67112        0.06283
H         -4.52392        1.50793       -0.87537
