22
720760.log	Energy: -462157.1086388
C          1.74068        2.49694        0.03159
C          0.96128        1.41830        0.00643
C          1.29359       -0.00345        0.00056
C          0.27176       -0.96966        0.00424
C         -1.11342       -0.56169        0.00484
C         -2.19959       -1.47239        0.01342
C         -3.49958       -1.00061        0.00859
C         -3.75637        0.39051       -0.00680
C         -2.72009        1.30851       -0.01531
C         -1.39408        0.82071       -0.00800
O         -0.42516        1.77476       -0.01565
O          0.49458       -2.26775        0.00396
N          2.65892       -0.40676       -0.00760
O          2.87648       -1.65084       -0.00761
O          3.57174        0.38742       -0.01448
H          1.35259        3.50533        0.03459
H          2.82392        2.44642        0.04858
H         -1.98155       -2.54455        0.02424
H         -4.33809       -1.69610        0.01583
H         -4.79219        0.74002       -0.01170
H         -2.89460        2.38403       -0.02673
H          1.57123       -2.49963        0.00142
