31
721432.log	Energy: -489326.4419965
C         -6.09541        0.61876        0.08485
C         -5.73482       -0.60546        0.65846
C         -4.41799       -1.06093        0.57095
C         -3.44658       -0.28310       -0.08322
C         -3.81269        0.94425       -0.65935
C         -5.13459        1.38933       -0.57645
C         -2.06298       -0.77836       -0.15687
C         -0.98232       -0.00328        0.01401
C          0.37659       -0.60347       -0.06876
O          0.58809       -1.79496       -0.22582
N          1.42068        0.33579        0.04448
C          2.81343        0.03080        0.01308
C          3.33392       -1.25333       -0.18590
C          4.72039       -1.45419       -0.21188
C          5.60330       -0.38920       -0.04072
C          5.11257        0.90815        0.16263
C          3.73446        1.10494        0.18613
O          3.15926        2.34865        0.37739
H         -7.12411        0.96908        0.15269
H         -6.48414       -1.20578        1.17306
H         -4.14226       -2.01585        1.01770
H         -3.06771        1.54459       -1.17997
H         -5.41566        2.33969       -1.02811
H         -1.95206       -1.85590       -0.35436
H         -1.05717        1.06182        0.22670
H          1.19926        1.32660        0.18952
H          2.65265       -2.10416       -0.31799
H          5.10459       -2.46159       -0.36903
H          6.67845       -0.55864       -0.06347
H          5.79665        1.74014        0.29911
H          3.84432        3.05051        0.48847
