22
722904.log	Energy: -470383.7806940
C         -4.78106        0.45588        0.07365
O         -4.23413       -0.90128       -0.00056
C         -2.85330       -0.75700       -0.02793
C         -2.50922        0.63184        0.02215
O         -3.65541        1.40127        0.08081
C         -1.20798        1.07001        0.01350
C         -0.21968        0.04208       -0.04887
C         -0.54655       -1.31458       -0.09853
C         -1.89474       -1.74136       -0.08772
N          1.14471        0.51039       -0.06613
N          2.12647       -0.37791       -0.00002
C          3.40086       -0.01586        0.01300
C          3.92161        1.32061       -0.02860
N          4.33114        2.40067       -0.06234
C          4.36727       -1.07306        0.07753
N          5.15417       -1.91741        0.13086
H         -5.30894        0.55738        1.03146
H         -5.36372        0.63739       -0.83955
H         -0.95990        2.12672        0.05416
H          0.24152       -2.07227       -0.14478
H         -2.14960       -2.79913       -0.12515
H          1.29818        1.52859       -0.08385
