32
722939.log	Energy: -476867.5745446
C         -2.53920        1.31242       -0.27042
C         -3.17834        0.95687        1.08369
O         -4.11817       -0.12191        0.92169
C         -3.52070       -1.31665        0.36843
C         -2.87803       -1.01288       -0.99239
N         -1.90092        0.11634       -0.89445
C         -0.60295       -0.21310       -0.47287
N         -0.15960       -1.47908       -0.34792
C          1.25682       -1.41509       -0.09639
C          2.22283       -2.36694        0.10043
C          3.56460       -1.91484        0.33499
C          3.92727       -0.58495        0.37006
C          2.93986        0.43517        0.16675
C          1.64550       -0.02245       -0.05359
C          0.49773        0.80381       -0.28734
C          0.67583        2.15885       -0.30675
C          1.99811        2.67152       -0.08152
C          3.09063        1.86103        0.14803
H         -1.81042        2.14310       -0.16453
H         -3.32443        1.66625       -0.97991
H         -2.42397        0.67296        1.83823
H         -3.81721        1.76991        1.47286
H         -4.38885       -1.99379        0.28560
H         -2.78842       -1.72375        1.08906
H         -3.65035       -0.70970       -1.73431
H         -2.37058       -1.91916       -1.39885
H          2.00149       -3.43073        0.08112
H          4.32474       -2.68295        0.48958
H          4.95833       -0.29133        0.54887
H         -0.14319        2.85376       -0.48734
H          2.12424        3.75453       -0.09949
H          4.07781        2.28864        0.31562
