24
72725.log	Energy: -450374.1133616
C          4.25347        0.73610       -0.01666
C          4.25232       -0.67159        0.01277
C          3.05774       -1.38552        0.02946
C          1.86474       -0.65159        0.01518
C          1.83299        0.75946       -0.01276
C          3.06265        1.45357       -0.02909
N          0.61398        1.47409       -0.02299
C         -0.49619        0.77643       -0.00946
C         -1.79625        1.41536       -0.00789
C         -2.95334        0.69544        0.00627
C         -2.94898       -0.83758       -0.02181
O         -4.00138       -1.43860       -0.08121
C         -1.63387       -1.46669        0.00709
C         -0.50883       -0.72068        0.01004
O          0.68892       -1.40962        0.02837
N         -4.20751        1.26362        0.10848
H          5.20480        1.26846       -0.03039
H          5.20198       -1.20889        0.02209
H          3.03095       -2.47368        0.05174
H          3.05415        2.54554       -0.05180
H         -1.79383        2.50658       -0.00390
H         -1.61257       -2.55796        0.02057
H         -4.32971        2.24873       -0.04526
H         -5.02003        0.67671       -0.03759
