31
7324854.log	Energy: -463666.6184496
C          3.21124        2.63013       -0.38214
C          3.65626        1.57773       -1.18850
C          3.16267        0.28535       -0.99256
C          2.22065        0.04655        0.01845
C          1.77621        1.10033        0.83148
C          2.27317        2.39000        0.62707
C          1.69371       -1.32011        0.23535
C          0.48779       -1.75253       -0.21391
N         -0.30574       -0.98239       -1.10234
N         -1.68055       -1.35912       -1.07143
C         -2.60444       -0.44530       -0.44545
C         -2.24274        0.29078        0.69606
C         -3.20265        1.08078        1.33353
C         -4.51169        1.14133        0.84788
C         -4.86698        0.40023       -0.28493
C         -3.92253       -0.38768       -0.94181
C          2.55163       -2.20320        0.95499
N          3.25677       -2.90980        1.54053
H          3.59951        3.63542       -0.53623
H          4.39206        1.76395       -1.96998
H          3.51045       -0.53745       -1.61634
H          1.06289        0.90891        1.63076
H          1.93338        3.20851        1.25997
H          0.11469       -2.76585        0.00656
H         -0.13029        0.03770       -1.07234
H         -1.95480       -1.62323       -2.03576
H         -1.23612        0.23483        1.10385
H         -2.92540        1.65127        2.22032
H         -5.25330        1.75871        1.35001
H         -5.88979        0.44076       -0.66088
H         -4.21040       -0.96065       -1.82030
