25
736373.log	Energy: -629802.7964558
C          4.63894        0.37101        0.62645
C          4.59989       -0.78305       -0.09657
S          2.98919       -1.07378       -0.67837
C          2.36315        0.35801        0.07406
C          3.35852        1.03229        0.72151
C          0.94965        0.76261       -0.06409
O          0.60209        1.89095       -0.36036
N          0.04061       -0.27822        0.19429
C         -1.39011       -0.17935        0.12090
C         -2.05089        1.00754       -0.24418
C         -3.44090        1.04222       -0.29154
C         -4.19081       -0.11096        0.01980
C         -3.52671       -1.30137        0.38353
C         -2.13670       -1.33458        0.43157
N         -5.60546       -0.10352       -0.11918
H          5.52477        0.78171        1.09435
H          5.40811       -1.45889       -0.32283
H          3.22693        1.96775        1.25433
H          0.40040       -1.19504        0.47015
H         -1.47501        1.90842       -0.49087
H         -3.94341        1.96325       -0.58036
H         -4.09636       -2.19894        0.61255
H         -1.63594       -2.26023        0.70977
H         -6.04139        0.80728       -0.07286
H         -6.10208       -0.77641        0.44805
