27
73674759.log	Energy: -511086.4909988
C         -4.74054       -0.94957        0.10693
C         -3.56107       -1.55435       -0.14762
C         -2.31353       -0.79591       -0.16380
C         -1.10223       -1.35277       -0.41226
C          0.11151       -0.54039       -0.40991
C          1.33570       -1.06828       -0.62820
C          2.58318       -0.24697       -0.64507
C          2.39385        1.27222       -0.39993
O          3.35705        1.99890       -0.47789
C          1.03211        1.73703       -0.13622
C         -0.04161        0.91082       -0.13987
N         -1.33018        1.44922        0.11629
C         -2.38364        0.66553        0.10761
C         -3.70421        1.25143        0.37518
C         -4.81151        0.48222        0.37318
C          3.58422       -0.83634        0.32772
O          4.50527       -1.57691        0.09133
O          3.29973       -0.45034        1.61051
H         -5.67819       -1.50570        0.12232
H         -3.49507       -2.62412       -0.34845
H         -0.99155       -2.41898       -0.61866
H          1.48094       -2.13629       -0.81287
H          3.04119       -0.32878       -1.68062
H          0.92712        2.80849        0.07135
H         -3.72837        2.32646        0.57181
H         -5.79880        0.90429        0.57000
H          3.96416       -0.79096        2.27306
