20
73697.log	Energy: -423259.6754866
C          0.67170       -1.25007        0.16270
C         -0.67359       -1.24884        0.16887
C         -1.44688        0.00024        0.09786
C         -2.80621        0.00001       -0.01263
C         -3.58011       -1.20517       -0.07680
N         -4.20645       -2.17494       -0.13117
C         -3.58053        1.20452       -0.08017
N         -4.20769        2.17398       -0.13326
C         -0.67251        1.25002        0.14734
C          0.67271        1.24958        0.14764
C          1.44564       -0.00112        0.09593
C          2.80515       -0.00097       -0.01287
C          3.57939        1.20434       -0.07233
N          4.20707        2.17361       -0.11851
C          3.58114       -1.20423       -0.08366
N          4.21079       -2.17147       -0.14442
H          1.23377       -2.18965        0.21040
H         -1.23600       -2.18804        0.22287
H         -1.23449        2.19028        0.18305
H          1.23534        2.18926        0.18397
