16
737312.log	Energy: -486306.6622483
C         -2.83130       -0.38030        0.00232
C         -2.27689        0.86177       -0.00240
C         -0.84634        0.99604       -0.00270
C          0.03960        2.05841       -0.00008
N          1.35361        1.52260        0.00249
C          1.31804        0.13498        0.00165
S          2.60113       -0.90414       -0.00064
N         -0.05350       -0.20885       -0.00083
C         -0.64827       -1.48494       -0.00138
C         -2.00749       -1.56782        0.00173
H         -3.91353       -0.51804        0.00619
H         -2.87191        1.77358       -0.00402
H         -0.15488        3.11437       -0.00269
H          2.20136        2.07275        0.00669
H          0.03816       -2.34262       -0.00426
H         -2.50208       -2.53875        0.00181
