24
738092.log	Energy: -427156.1137423
C         -3.51755       -1.20064        0.00056
C         -2.99264        0.05842       -0.00374
C         -1.57154        0.23769       -0.00165
C         -0.73584        1.36102        0.00014
C          0.63289        0.89700        0.00186
C          0.61332       -0.53721        0.00072
N         -0.74696       -0.93675       -0.00050
C         -1.30128       -2.22168        0.00155
C         -2.66171       -2.35647        0.00290
C          1.78448       -1.30837       -0.00155
C          2.97686       -0.59041       -0.00101
C          3.03864        0.83098        0.00266
C          1.87032        1.57072        0.00367
O          4.11915       -1.35516       -0.00367
C         -1.14515        2.70827       -0.00061
N         -1.47881        3.81779       -0.00120
H         -4.59659       -1.36216        0.00129
H         -3.61444        0.95545       -0.00720
H         -0.60415       -3.06433        0.00233
H         -3.11946       -3.34504        0.00549
H          1.78247       -2.39249       -0.00424
H          4.00579        1.32681        0.00429
H          1.89010        2.66162        0.00547
H          4.93868       -0.80179        0.00072
