30
741083.log	Energy: -483940.1280494
C         -5.36628       -1.09811        0.31799
N         -4.56724        0.01723       -0.26538
C         -5.17374        1.33894        0.05871
C         -3.15071       -0.08347       -0.10167
C         -2.32873        1.06588       -0.10942
C         -0.94112        0.95422       -0.09700
C         -0.34022       -0.31384       -0.06731
C         -1.14469       -1.47121       -0.05729
C         -2.52882       -1.35546       -0.07222
N          1.08613       -0.50032       -0.04980
C          2.02352        0.51672        0.01597
O          1.77959        1.71256        0.07264
C          3.44639        0.04836        0.01855
N          3.93248       -1.22140       -0.04658
C          5.31849       -1.06790       -0.00756
N          5.68812        0.25231        0.07895
N          4.52663        0.94315        0.09510
H         -6.42600       -0.97069        0.04241
H         -5.29573       -1.17045        1.41436
H         -5.03705       -2.05715       -0.11954
H         -5.06159        1.63804        1.11234
H         -4.71964        2.11703       -0.58030
H         -6.24866        1.31671       -0.18595
H         -2.76855        2.06164       -0.13752
H         -0.32397        1.86074       -0.10538
H         -0.69105       -2.46162       -0.03685
H         -3.13519       -2.26094       -0.07752
H          1.41476       -1.47470       -0.09454
H          6.01275       -1.89777       -0.04268
H          4.49569        1.95702        0.15155
