26
74995.log	Energy: -427888.1004819
C          2.59245        1.59799       -0.00585
C          3.70873        0.84986       -0.01140
C          3.67567       -0.64063       -0.00214
N          4.71540       -1.41182        0.00594
C          2.33766       -1.25596        0.00090
C          1.24388       -0.46938        0.00172
C          1.25933        0.99495        0.00007
C          0.09932        1.70048        0.00227
C         -1.16060        0.99924        0.00562
C         -1.15302       -0.41617        0.00367
O          0.01336       -1.15265        0.00520
C         -2.31833       -1.18624        0.00639
C         -3.55258       -0.50844        0.00202
C         -3.59418        0.91885        0.00751
C         -2.41827        1.64367        0.00567
N         -4.73936       -1.23053       -0.05416
H          2.63388        2.68833       -0.00878
H          4.69653        1.30750       -0.01884
H          5.63940       -0.99177        0.00470
H          2.28680       -2.34492        0.00261
H          0.08412        2.79074        0.00065
H         -2.24914       -2.26990        0.00128
H         -4.55236        1.42983        0.00376
H         -2.45068        2.73536        0.00559
H         -5.61767       -0.77175        0.11199
H         -4.73037       -2.22516        0.09444
