28
75186.log	Energy: -404948.6741450
C         -2.01532       -2.19677        0.75974
C         -1.99704       -1.64005       -0.66215
N         -1.83307       -0.15877       -0.75400
C         -3.08122        0.61506       -0.48908
C         -3.43670        0.77035        0.98847
C         -0.59693        0.40802       -0.36164
C          0.56889       -0.38921       -0.27399
C          1.79763        0.21959       -0.01531
C          1.93090        1.59880        0.16415
C          0.77528        2.38397        0.07888
C         -0.46608        1.81021       -0.17494
N          3.01057       -0.63874        0.07029
O          2.85481       -1.85036        0.04594
O          4.09448       -0.08449        0.16290
H         -1.09085       -1.96919        1.30611
H         -2.12705       -3.28739        0.75455
H         -2.84601       -1.77970        1.34851
H         -1.17534       -2.11282       -1.25082
H         -2.94198       -1.90557       -1.18885
H         -2.97280        1.61721       -0.96686
H         -3.91189        0.10678       -1.03031
H         -2.65415        1.29869        1.54736
H         -4.36867        1.33276        1.11453
H         -3.57077       -0.20760        1.47615
H          0.52918       -1.47387       -0.41242
H          2.90763        2.04406        0.36114
H          0.85278        3.46436        0.21452
H         -1.34333        2.45382       -0.24310
