28
756054.log	Energy: -431016.9688589
C         -5.18149       -0.62047       -0.86632
C         -4.55572       -0.01977        0.39172
C         -3.05422       -0.00345        0.29274
C         -2.40328        1.00574       -0.43434
C         -1.01219        1.02443       -0.52836
C         -0.24584        0.02541        0.09742
C         -0.89846       -0.98337        0.82867
C         -2.28932       -0.99634        0.92555
C          1.22231        0.01709       -0.00819
C          1.92414       -1.10909       -0.21735
C          3.41177       -1.14345       -0.26277
O          4.02869       -2.12985       -0.59470
C          4.10910        0.11986        0.14953
C          3.43220        1.25210        0.33769
C          1.95223        1.33902        0.11854
O          1.40272        2.41187        0.02598
H         -4.92943       -0.03658       -1.76013
H         -6.27408       -0.65323       -0.78846
H         -4.82984       -1.64516       -1.03867
H         -4.93882        1.01040        0.54977
H         -4.88424       -0.59154        1.28401
H         -2.98715        1.78116       -0.92850
H         -0.51487        1.82517       -1.08241
H         -0.31665       -1.75574        1.33186
H         -2.78285       -1.78354        1.49348
H          1.44266       -2.07998       -0.36939
H          5.19121        0.03450        0.27540
H          3.90530        2.19211        0.63570
