28
757405.log	Energy: -431017.9120445
C          4.62446       -0.86873       -0.24159
C          3.15013       -0.63832       -0.17536
C          2.62490        0.55683        0.36653
C          1.23841        0.74408        0.41168
C          0.36345       -0.24416       -0.06603
C          0.88952       -1.42813       -0.60777
C          2.27038       -1.61652       -0.66144
C         -1.09603       -0.05823        0.00086
C         -1.93101       -1.03463        0.39223
C         -3.41196       -0.88320        0.39424
O         -4.14925       -1.69828        0.89953
C         -3.94321        0.33894       -0.29561
C         -3.13203        1.32818       -0.66843
C         -1.66052        1.29403       -0.38425
O         -0.99630        2.30223       -0.43630
C          3.52949        1.62455        0.89113
H          4.88255       -1.85906       -0.63850
H          5.08742       -0.79050        0.75296
H          5.11406       -0.12520       -0.88774
H          0.82993        1.67638        0.81093
H          0.22425       -2.19784       -0.99598
H          2.66798       -2.53696       -1.08725
H         -1.57191       -2.00993        0.73495
H         -5.02334        0.34897       -0.45963
H         -3.47982        2.23408       -1.17193
H          4.10207        1.27021        1.76002
H          4.25327        1.94784        0.12942
H          2.98209        2.52224        1.20982
