24
758195.log	Energy: -463004.2046191
C         -3.68302       -1.51082        0.02115
C         -4.55920       -0.43693        0.17421
C         -4.06759        0.87463        0.21535
C         -2.69425        1.07833        0.10114
C         -1.78274       -0.00484       -0.05514
C         -2.30236       -1.30362       -0.09391
N         -0.39256        0.30757       -0.16692
C          0.63772       -0.63406       -0.29198
O          0.44971       -1.83492       -0.33207
C          1.99892       -0.00578       -0.38262
C          3.03013       -0.51559        0.29139
C          4.39907        0.04549        0.23191
O          5.40114       -0.35491        0.77318
O          4.45374        1.17523       -0.55801
O         -2.11591        2.33259        0.13339
H         -4.06957       -2.52944       -0.00985
H         -5.63059       -0.61191        0.26294
H         -4.74720        1.71344        0.33426
H         -1.62776       -2.16129       -0.21401
H         -0.17065        1.30956       -0.11622
H          2.10085        0.86286       -1.04431
H          2.94398       -1.40282        0.93608
H          5.37246        1.55675       -0.60942
H         -2.79318        3.04509        0.22820
