34
759534.log	Energy: -454401.5267365
C         -4.73419        0.04897        0.02164
C         -3.81958        1.26724       -0.14622
C         -2.44708        1.04148        0.50851
N         -1.82838       -0.22057        0.00822
C         -2.68879       -1.43814        0.14862
C         -4.04581       -1.20490       -0.52715
C         -0.45871       -0.39266        0.09382
N          0.12154       -1.61967        0.12044
C          1.54004       -1.42219        0.05369
C          2.61170       -2.27861        0.04053
C          3.92330       -1.70407       -0.02226
C          4.16397       -0.34663       -0.07282
C          3.06680        0.57605       -0.06111
C          1.80180        0.00199        0.00528
C          0.56215        0.72033        0.03021
C          0.61159        2.08516       -0.02263
C          1.89906        2.71671       -0.09342
C          3.08208        2.00933       -0.11183
H         -5.69182        0.21902       -0.50609
H         -4.99348       -0.09234        1.08836
H         -3.68344        1.48169       -1.22615
H         -4.28989        2.16721        0.29232
H         -2.55239        1.00591        1.61670
H         -1.78290        1.90492        0.26849
H         -2.81766       -1.69873        1.22190
H         -2.16778       -2.30395       -0.32994
H         -4.68542       -2.09579       -0.38175
H         -3.90148       -1.10476       -1.62243
H          2.48904       -3.35707        0.07547
H          4.76633       -2.39782       -0.03022
H          5.17755        0.04028       -0.12191
H         -0.28709        2.70248       -0.01521
H          1.91891        3.80597       -0.13356
H          4.03962        2.52420       -0.16571
