24
76139.log	Energy: -390954.2660708
C          4.03890        0.50362       -0.00207
C          3.92059       -0.93251       -0.00307
C          2.70191       -1.53990       -0.00205
C          1.49819       -0.73908        0.00086
C          1.61752        0.70330       -0.00074
C          2.93464        1.29987       -0.00168
N          0.51368        1.49972        0.00035
C         -0.69608        0.89108        0.00266
C         -1.89847        1.70194        0.00098
C         -3.12201        1.11592        0.00452
C         -3.24861       -0.33449        0.00682
C         -2.13282       -1.14303        0.01481
C         -0.82647       -0.55660        0.00537
N          0.28175       -1.34977        0.00537
N         -4.54195       -0.87848       -0.07952
H          5.04086        0.93211       -0.00216
H          4.84008       -1.51848       -0.00477
H          2.58690       -2.62533       -0.00288
H          2.99660        2.38937       -0.00129
H         -1.77168        2.78800       -0.00361
H         -4.03125        1.71570       -0.01138
H         -2.19698       -2.23004        0.01532
H         -5.31313       -0.31307        0.23728
H         -4.64947       -1.85931        0.13163
