28
771515.log	Energy: -428646.3643713
C         -3.35023       -1.49268        1.07073
C         -3.07739       -0.96407       -0.33553
N         -1.81100       -0.20705       -0.41993
C         -0.51919       -0.81185       -0.27188
C          0.41524        0.26941       -0.08198
C          1.79422        0.11304        0.04665
C          2.26551       -1.25609       -0.00392
C          1.35965       -2.29941       -0.17814
C         -0.04526       -2.09772       -0.32300
N          3.65947       -1.51121        0.03285
C          2.53524        1.32749        0.20111
C          1.88952        2.54745        0.22485
C          0.46777        2.67444        0.09740
C         -0.26298        1.52869       -0.05487
C         -1.72384        1.22066       -0.21553
O         -2.68457        1.95217       -0.22512
H         -2.54321       -2.14253        1.42940
H         -4.28137       -2.06990        1.10025
H         -3.45126       -0.67359        1.79519
H         -3.03469       -1.80017       -1.06944
H         -3.89933       -0.27879       -0.65901
H          1.71945       -3.32605       -0.22465
H         -0.69541       -2.95544       -0.46927
H          4.21598       -0.84264        0.54610
H          3.92489       -2.46164        0.25358
H          3.62002        1.28062        0.29048
H          2.46889        3.46411        0.34078
H          0.00376        3.66032        0.12172
