21
774977.log	Energy: -617762.2487655
C          3.61272        0.19212       -0.00381
C          3.35682       -1.17921       -0.00525
C          2.03516       -1.64873       -0.00332
C          0.97247       -0.74414        0.00064
C          1.22927        0.64075        0.00089
C          2.54984        1.10499       -0.00104
C          0.12284        1.62929        0.00306
O          0.28939        2.83032        0.00573
C         -1.30089        1.06906        0.00206
C         -1.50713       -0.27817        0.00106
C         -0.43561       -1.26692        0.00516
O         -0.67239       -2.46227        0.01313
S         -3.12175       -0.92251       -0.00879
N         -2.29210        2.01067       -0.00407
H          4.63994        0.55840       -0.00521
H          4.18302       -1.89175       -0.00808
H          1.82400       -2.72363       -0.00433
H          2.74309        2.18201       -0.00029
H         -2.81968       -2.25008        0.02634
H         -2.05915        2.99452        0.00637
H         -3.26741        1.75727        0.00659
