28
776695.log	Energy: -394827.4094813
C         -2.46207        0.87309       -0.69578
C         -3.17986       -0.29490        0.00225
H         -4.17596       -0.48398       -0.46037
C         -2.33975       -1.59319        0.08840
N         -0.99363       -1.57312       -0.54719
C         -0.30067       -0.30980       -0.37117
C         -0.99116        0.89156       -0.40900
C         -0.29802        2.11829       -0.20455
C          1.05638        2.12046        0.01140
C          1.79416        0.89475        0.04654
C          3.20827        0.88694        0.26884
C          3.89977       -0.29730        0.31279
C          3.21741       -1.53706        0.14213
C          1.86279       -1.55937       -0.07580
C          1.11690       -0.33994       -0.13661
O         -3.55337        0.09511        1.32997
H         -2.61938        0.81405       -1.79316
H         -2.94652        1.82205       -0.38030
H         -2.18383       -1.83654        1.16918
H         -2.91150       -2.44922       -0.32635
H         -1.06176       -1.79226       -1.54989
H         -0.86011        3.05090       -0.22967
H          1.59406        3.05569        0.16110
H          3.71996        1.83846        0.40254
H          4.97562       -0.31055        0.48096
H          3.79014       -2.46143        0.19153
H          1.32609       -2.50319       -0.19476
H         -2.76939        0.38584        1.84308
