26
77705.log	Energy: -451032.7136620
C          4.65374       -0.46189        0.04251
C          4.11594        0.47452        0.93086
C          2.75136        0.77260        0.89615
C          1.91587        0.12834       -0.03033
C          2.45675       -0.81602       -0.91755
C          3.82243       -1.10693       -0.87888
C          0.47346        0.44310       -0.07070
C         -0.47726       -0.54722        0.08613
C         -1.86534       -0.24596        0.04927
C         -2.28786        1.09959       -0.15613
C         -1.28371        2.11111       -0.32011
C          0.05093        1.78735       -0.27662
N         -3.60980        1.45956       -0.20381
N         -2.79347       -1.34469        0.22418
O         -2.34728       -2.46967        0.38155
O         -4.00237       -1.09861        0.20490
H          5.71763       -0.68999        0.06917
H          4.76051        0.97263        1.65356
H          2.33389        1.49513        1.59483
H          1.81179       -1.31891       -1.63640
H          4.23965       -1.83941       -1.56864
H         -0.17954       -1.59251        0.24795
H         -1.59391        3.14129       -0.48302
H          0.81171        2.56245       -0.40579
H         -4.35236        0.76518       -0.08700
H         -3.88721        2.41464       -0.34640
