26
780044.log	Energy: -417300.1867223
C         -2.12047        2.40134       -0.13527
C         -1.15649        1.26855       -0.00534
C         -1.54227       -0.04216       -0.06222
C         -0.53194       -1.14590        0.20461
O         -0.86842       -2.25903        0.54727
C          0.90180       -0.77224        0.04529
C          1.86681       -1.77889       -0.06798
C          3.21824       -1.43576       -0.20332
C          3.60166       -0.09349       -0.21462
C          2.63722        0.91579       -0.08955
C          1.28783        0.57832        0.03528
C          0.25690        1.66677        0.16027
O          0.60193        2.81461        0.36694
N         -2.82705       -0.41192       -0.46157
C         -3.40342       -1.71861       -0.07029
H         -2.47855        2.50953       -1.16875
H         -1.64032        3.36131        0.13273
H         -2.98713        2.29102        0.52825
H          1.55807       -2.82737       -0.04425
H          3.96883       -2.22072       -0.29682
H          4.65390        0.17441       -0.31686
H          2.92830        1.97094       -0.08259
H         -3.51799        0.34171       -0.46673
H         -4.43193       -1.79367       -0.45666
H         -2.81385       -2.54685       -0.51290
H         -3.41330       -1.88394        1.02076
