26
785549.log	Energy: -508109.8125103
C          1.81679        1.86718       -0.01299
C          3.19346        1.80897       -0.01190
C          3.78864        0.52991       -0.00269
C          2.99829       -0.66863        0.00648
C          1.59579       -0.59162        0.00305
C          1.01929        0.67244       -0.00525
N         -0.40356        0.87163       -0.00714
C         -1.37058       -0.14723       -0.00471
O         -1.08953       -1.33085       -0.01333
C         -2.78173        0.36436        0.00852
C         -3.80324       -0.49485       -0.00369
C         -5.20426       -0.01112        0.00754
O         -5.63647        1.11789        0.03906
O         -6.06244       -1.08198       -0.02601
C          3.95673       -1.75036        0.01539
N          5.21325       -1.25362        0.01205
N          5.12888        0.10730       -0.00128
H          1.32186        2.83783       -0.02110
H          3.80321        2.70838       -0.01917
H          0.99377       -1.50720        0.00613
H         -0.70885        1.84656       -0.00189
H         -2.93991        1.44777        0.02729
H         -3.66728       -1.58772       -0.02161
H         -7.02084       -0.80599       -0.02091
H          3.74039       -2.80693        0.02375
H          5.96012        0.67534        0.00587
