25
791072.log	Energy: -437860.9364140
C          4.65126        0.19370        0.17669
C          3.70338        1.01421        0.79416
C          2.34156        0.71627        0.71121
C          1.92942       -0.41675       -0.01080
C          2.87980       -1.25566       -0.62965
C          4.23443       -0.94131       -0.52861
N          0.55381       -0.79797       -0.09910
C         -0.53208        0.07987       -0.15848
C         -0.46718        1.43137       -0.40942
C         -1.64066        2.26233       -0.44546
C         -2.90178        1.78424       -0.25103
C         -3.05721        0.38082       -0.01074
N         -4.11978       -0.40873        0.19759
O         -3.64976       -1.69659        0.36042
N         -2.28785       -1.75037        0.26112
C         -1.85566       -0.50431        0.03331
H          5.71003        0.43342        0.24636
H          4.02660        1.89322        1.35284
H          1.61391        1.34591        1.22129
H          2.56474       -2.13490       -1.18724
H          4.97348       -1.58497       -1.00663
H          0.35623       -1.80139       -0.12710
H          0.48856        1.91450       -0.61111
H         -1.48054        3.32599       -0.64259
H         -3.78983        2.41174       -0.27357
