29
792679.log	Energy: -451930.6237621
C         -2.26126       -1.87783        1.45334
C         -2.20321       -1.74844       -0.07419
C         -3.55050       -2.10061       -0.71322
N         -1.84608       -0.36066       -0.50919
C         -0.54689        0.12466       -0.22307
C         -0.34195        1.54484       -0.06596
C          0.92845        2.09362        0.07290
C          2.04755        1.24952        0.07577
C          1.86284       -0.12579       -0.05839
C          0.58081       -0.69454       -0.20852
N          3.03568       -1.02038       -0.04530
O          4.13961       -0.50661        0.06538
O          2.84207       -2.22275       -0.14135
O         -1.52257        2.24882       -0.06044
C         -1.45665        3.68538        0.12571
H         -3.02665       -1.23176        1.89626
H         -1.30272       -1.61607        1.91768
H         -2.49482       -2.90594        1.75317
H         -1.41543       -2.44318       -0.47459
H         -4.37430       -1.49622       -0.31833
H         -3.52488       -1.94881       -1.80120
H         -3.80214       -3.15238       -0.53428
H         -2.58845        0.32064       -0.30937
H          1.07305        3.16591        0.18077
H          3.05466        1.66417        0.18452
H          0.49001       -1.78047       -0.32213
H         -0.97839        3.92692        1.07927
H         -0.94371        4.14858       -0.72274
H         -2.52140        3.95523        0.13763
