29
794007.log	Energy: -418550.2320146
C         -4.09671        0.96574        0.83252
C         -2.97802        0.61764        1.59727
C         -1.95481       -0.14804        1.03371
C         -2.04898       -0.57013       -0.30021
C         -3.16953       -0.22109       -1.06620
C         -4.19127        0.54508       -0.49763
C         -0.93334       -1.39057       -0.90370
N          0.14655       -0.53775       -1.47519
C          1.12478        0.02700       -0.62733
C          1.61096        1.27780       -0.85388
C          2.78368        1.87447       -0.26375
C          3.87027        1.24424        0.23531
C          4.08124       -0.18733        0.30270
C          3.12668       -1.12956        0.38946
C          1.68147       -0.86789        0.45944
O          0.96146       -1.35877        1.30536
H         -4.89303        1.56217        1.27363
H         -2.90370        0.94284        2.63401
H         -1.07687       -0.42499        1.62832
H         -3.25110       -0.54887       -2.10028
H         -5.06289        0.81311       -1.09200
H         -0.51472       -2.09419       -0.14223
H         -1.30750       -2.03373       -1.73438
H         -0.23408        0.12847       -2.15794
H          1.08240        1.93280       -1.55514
H          2.78072        2.97356       -0.28182
H          4.70764        1.84486        0.60595
H          5.13604       -0.49514        0.31043
H          3.38103       -2.19059        0.46856
