30
794846.log	Energy: -499268.3918894
C          3.12293       -1.17991        2.43946
C          2.93921       -0.60300        1.07397
C          1.81775       -0.94926        0.30836
C          1.67045       -0.41509       -0.98263
C          2.62863        0.46717       -1.51283
C          3.73768        0.80523       -0.73545
C          3.89672        0.28151        0.54896
N          0.60098       -0.84837       -1.82580
C         -0.62728       -0.50151       -1.70149
C         -1.21166        0.45102       -0.71067
C         -0.68574        1.74803       -0.62004
C         -1.21506        2.66877        0.28715
C         -2.27620        2.30514        1.12460
C         -2.80963        1.01997        1.05157
C         -2.28302        0.09768        0.13042
N         -2.89736       -1.24983        0.08647
O         -2.60152       -1.98826       -0.83874
O         -3.67575       -1.53849        0.98089
H          2.18126       -1.53303        2.88034
H          3.55604       -0.45516        3.14169
H          3.80417       -2.04432        2.40451
H          1.07713       -1.64294        0.69907
H          2.51637        0.85860       -2.52065
H          4.48922        1.48429       -1.13873
H          4.76749        0.55256        1.14063
H         -1.36532       -0.94461       -2.40428
H          0.15264        2.03470       -1.26040
H         -0.79470        3.67511        0.34575
H         -2.68435        3.02452        1.83557
H         -3.63590        0.71723        1.70638
