30
794913.log	Energy: -499268.0891681
C         -5.01408        0.88610        1.16307
C         -3.78935        0.22876        0.61590
C         -2.64830        0.05888        1.41462
C         -1.50839       -0.55954        0.89978
C         -1.50901       -1.02653       -0.42651
C         -2.65525       -0.87436       -1.23032
C         -3.78192       -0.24341       -0.70853
N         -0.41311       -1.76760       -0.96734
C          0.78785       -1.32680       -1.07638
C          1.30624        0.03272       -0.74097
C          0.66025        1.15769       -1.27623
C          1.12715        2.44493       -1.00254
C          2.24858        2.63096       -0.18473
C          2.90253        1.52657        0.35730
C          2.43613        0.23010        0.07452
N          3.18156       -0.90561        0.66647
O          2.88747       -2.03622        0.31457
O          4.05941       -0.63759        1.47124
H         -5.42714        1.62723        0.46529
H         -4.82862        1.40649        2.11163
H         -5.80356        0.14307        1.35307
H         -2.64836        0.40945        2.44574
H         -0.62942       -0.69645        1.52739
H         -2.65849       -1.25955       -2.24962
H         -4.66810       -0.12411       -1.33030
H          1.55504       -2.02366       -1.47784
H         -0.22186        1.02120       -1.90731
H          0.61266        3.31014       -1.42585
H          2.60975        3.63755        0.02949
H          3.77937        1.65521        1.00402
