27
797494.log	Energy: -607319.3228986
C          2.01108        2.05727        0.94217
N          2.68282        0.88764        0.33271
C          4.13565        1.01204        0.07250
C          2.02017       -0.20330       -0.09165
S          2.82314       -1.46559       -0.83351
C          0.54928       -0.37132        0.09150
N         -0.25152        0.62065       -0.30611
C         -1.62612        0.43569       -0.21819
C         -2.48685        1.49361       -0.66298
C         -3.84626        1.33878       -0.58285
C         -4.41638        0.13757       -0.06291
C         -3.61268       -0.88860        0.36664
C         -2.19064       -0.76501        0.29989
C         -1.29639       -1.79568        0.72689
C          0.05854       -1.61143        0.62642
H          2.73550        2.72606        1.43168
H          1.27482        1.74058        1.70306
H          1.45961        2.63484        0.17280
H          4.68843        0.17881        0.55366
H          4.35027        0.94890       -1.01454
H          4.53309        1.96365        0.45277
H         -2.03029        2.39924       -1.06406
H         -4.51740        2.13003       -0.91768
H         -5.50160        0.05273       -0.01720
H         -4.03947       -1.81027        0.76114
H         -1.70908       -2.72422        1.12365
H          0.77037       -2.38672        0.92008
