26
799128.log	Energy: -497884.2825022
C          3.99979       -0.56787        0.00147
C          3.93962        0.83083       -0.00217
C          2.70384        1.48113       -0.00232
C          1.50782        0.74826       -0.00085
C          1.58518       -0.67543        0.00164
C          2.82681       -1.32447        0.00268
C          0.31639       -1.36390        0.00189
C         -0.87011       -0.65653        0.00072
C         -1.93449       -1.63628       -0.00082
N         -1.37379       -2.86473       -0.00256
O          0.00097       -2.73413       -0.00116
C         -3.28403       -1.11049       -0.00110
C         -3.46320        0.23706        0.00105
C         -2.35048        1.20758        0.00155
C         -1.02900        0.74784        0.00138
C          0.21314        1.52064        0.00015
O          0.20730        2.74782       -0.00071
N         -2.62395        2.54837       -0.00007
H          4.96804       -1.06962        0.00248
H          4.85939        1.41450       -0.00349
H          2.65104        2.57587       -0.00377
H          2.86844       -2.41329        0.00473
H         -4.11805       -1.81469       -0.00346
H         -4.47332        0.65084        0.00113
H         -3.55785        2.91248        0.00225
H         -1.84733        3.21877        0.00195
