32
805680.log	Energy: -396266.9725197
C         -4.35579        0.21281        0.21155
C         -3.33803        1.05716        0.99057
C         -1.98903        0.33815        1.10780
C         -1.45387       -0.03313       -0.29323
C         -2.46933       -0.91000       -1.05635
C         -3.81505       -0.18254       -1.16951
N         -0.17306       -0.78922       -0.19822
C          1.05184       -0.15063        0.00851
C          1.23174        1.19742       -0.10596
C          2.45812        1.93322       -0.08001
C          3.72972        1.48617       -0.22676
C          4.16130        0.13059       -0.43487
C          3.47921       -1.00692       -0.19276
C          2.13863       -1.15549        0.35535
O          1.81772       -2.11741        1.03681
H         -5.30320        0.77215        0.09972
H         -4.60520       -0.69800        0.78973
H         -3.20196        2.03629        0.49234
H         -3.72997        1.28190        2.00081
H         -2.09931       -0.57125        1.72925
H         -1.25824        0.97679        1.63830
H         -1.26912        0.90597       -0.88044
H         -2.60905       -1.88039       -0.54252
H         -2.07752       -1.15229       -2.06296
H         -4.54600       -0.83137       -1.68874
H         -3.70525        0.71866       -1.80330
H         -0.25995       -1.72484        0.22210
H          0.34085        1.82490       -0.23705
H          2.31719        3.01925        0.04016
H          4.54023        2.22346       -0.21645
H          5.19169        0.03788       -0.81368
H          3.96758       -1.97627       -0.36037
