28
813564.log	Energy: -508759.6750871
C          4.51627       -1.49407        0.10325
C          3.08149       -1.15216        0.05624
C          2.01953       -2.04591        0.02302
N          0.82348       -1.27820       -0.00992
C         -0.47940       -1.69880       -0.03840
C         -1.49577       -0.75813       -0.05003
C         -1.22539        0.64898       -0.08950
C          0.10258        1.07641       -0.03650
C          1.18132        0.12648        0.00068
C          2.56216        0.19218        0.04378
N          0.47099        2.49471       -0.02668
O         -0.42504        3.32183        0.09011
O          1.64991        2.78971       -0.12642
C         -2.35068        1.60829       -0.19794
C         -2.89187       -1.29603       -0.07937
O         -3.35368       -1.95268       -0.99423
N         -3.64783       -1.04776        1.06388
H          5.07217       -0.99339       -0.70634
H          4.70314       -2.57221        0.00972
H          4.97120       -1.16176        1.05084
H          2.01463       -3.11728        0.01471
H         -0.68141       -2.78086       -0.05368
H          3.15415        1.09321        0.05595
H         -2.43921        2.23441        0.71062
H         -2.17972        2.34629       -1.00893
H         -3.32965        1.15524       -0.39746
H         -3.30867       -0.50638        1.83865
H         -4.59398       -1.39291        1.12802
