22
816761.log	Energy: -449303.7594167
C          0.61548       -1.25649       -0.02212
C          1.40306       -0.10460       -0.00561
C          0.79504        1.18220       -0.03216
C         -0.61558        1.25735       -0.01707
C         -1.40308        0.10523       -0.00496
C         -0.79525       -1.18098       -0.03515
N         -1.54589       -2.35880       -0.17444
C         -2.87234        0.23294        0.05354
O         -3.71203       -0.63352        0.20573
O         -3.28814        1.53948       -0.06507
N          1.54660        2.35923       -0.16987
C          2.87214       -0.23324        0.05204
O          3.71329        0.63330        0.19584
O          3.28644       -1.54121       -0.05590
H          1.10769       -2.23471       -0.03355
H         -1.10774        2.23569       -0.02555
H         -2.54515       -2.30733        0.02573
H         -1.11804       -3.21675        0.13948
H         -4.28242        1.61736       -0.02620
H          2.54646        2.30638        0.02698
H          1.12035        3.21748        0.14535
H          4.28060       -1.61998       -0.01793
