28
818310.log	Energy: -506386.6498889
C         -6.11332       -0.19503        0.22488
O         -4.94384       -1.01576       -0.01359
C         -3.71148       -0.41204       -0.01051
C         -3.46726        0.95935        0.13371
C         -2.14847        1.41717        0.09758
C         -1.09649        0.50656       -0.09017
C         -1.35081       -0.87542       -0.22735
C         -2.65653       -1.33699       -0.18592
N          0.24172        1.04205       -0.17075
N          1.26646        0.22054       -0.00359
C          2.51709        0.64588       -0.00226
C          2.95527        2.00007       -0.14326
N          3.29363        3.09809       -0.26695
C          3.61679       -0.36248        0.19041
O          4.71119       -0.07893        0.64548
N          3.34931       -1.66363       -0.25131
N          4.27078       -2.72222       -0.04370
H         -6.92037       -0.93834        0.16463
H         -6.21788        0.55870       -0.56040
H         -6.06753        0.25250        1.22165
H         -4.27860        1.66814        0.27300
H         -1.95301        2.48354        0.21355
H         -0.52499       -1.57678       -0.36502
H         -2.88968       -2.39712       -0.28773
H          0.33990        2.06473       -0.22112
H          2.41328       -1.99825       -0.49325
H          5.07379       -2.59126       -0.67772
H          4.66428       -2.67443        0.90885
