21
823971.log	Energy: -731667.5398452
C          4.61929        0.39427        0.21569
C          4.70770       -0.94997        0.00903
S          3.11820       -1.63462       -0.17979
C          2.40608       -0.00055        0.04985
N          3.31515        0.93624        0.24572
N          1.01217        0.11744        0.00371
C          0.31512        1.35160       -0.06405
O          0.82940        2.43798       -0.13690
C         -1.16929        1.17984       -0.04611
C         -2.19766        2.09666       -0.06573
C         -3.42091        1.34817       -0.03078
C         -3.05479        0.02105        0.00942
O         -1.66083       -0.12922       -0.00029
N         -3.79408       -1.24117        0.05479
O         -5.00668       -1.15227        0.09474
O         -3.14109       -2.26556        0.04897
H          5.44206        1.09119        0.36532
H          5.59134       -1.56296       -0.03967
H          0.47494       -0.76137        0.03948
H         -2.10923        3.17291       -0.10051
H         -4.42263        1.75275       -0.03353
