22
82430.log	Energy: -480537.8631699
C          1.26191       -1.88549       -0.01554
N          1.88194       -0.55971       -0.01758
C          1.23040        0.69753        0.00234
N          2.19226        1.68440        0.01819
N          3.39277        1.12464        0.03738
C          3.25407       -0.25715        0.02096
N          4.26641       -1.23603       -0.08667
C         -0.18436        0.93856       -0.00240
C         -0.95119        2.09036       -0.01677
C         -2.32018        1.68206       -0.01637
C         -2.31379        0.30268       -0.00192
O         -0.99829       -0.20324        0.00830
N         -3.33734       -0.72641        0.00413
O         -4.49524       -0.34715        0.01909
O         -2.96329       -1.88565       -0.00694
H          1.05354       -2.22991        1.01481
H          1.91997       -2.62356       -0.51447
H          0.29483       -1.87188       -0.56379
H          5.17546       -0.81830       -0.30204
H          4.34535       -1.82156        0.74336
H         -0.58283        3.10504       -0.02686
H         -3.18511        2.32898       -0.02458
