21
825150.log	Energy: -636135.5312665
C          0.91370        2.57842       -0.00737
C          2.17169        2.06835        0.00378
C          2.34931        0.63672        0.00150
N          3.48718       -0.04645        0.01926
S          3.12105       -1.70580        0.02049
N          1.43067       -1.54413       -0.00329
C          1.14005       -0.24908       -0.01383
C         -0.17974        0.38301       -0.03386
C         -0.26521        1.74637       -0.02534
N         -1.29338       -0.50331       -0.08583
C         -2.63762       -0.08081        0.00441
O         -3.00079        1.08224        0.07127
N         -3.59105       -1.15531        0.07681
N         -4.96919       -0.80603       -0.05151
H          0.74914        3.65932       -0.00216
H          3.06709        2.68970        0.01612
H         -1.24145        2.25041       -0.02990
H         -1.07264       -1.50639       -0.03256
H         -3.40728       -2.00605       -0.47739
H         -5.33848       -0.66126        0.89995
H         -5.08952        0.09781       -0.53598
