30
827015.log	Energy: -499273.7217948
C          4.59030       -1.76545       -1.13490
C          3.70543       -0.95734       -0.24321
C          3.06532        0.18857       -0.73228
C          2.24590        0.94158        0.12656
C          2.06042        0.56075        1.46658
C          2.71189       -0.58075        1.94013
C          3.52422       -1.34044        1.09758
N          1.69728        2.16518       -0.36926
C          0.45198        2.38190       -0.59417
C         -0.70104        1.45318       -0.42684
C         -1.86672        1.92173        0.20161
C         -2.96120        1.07399        0.36337
C         -2.88304       -0.24231       -0.11734
C         -1.72506       -0.71993       -0.74806
C         -0.63293        0.13453       -0.90031
N         -4.04558       -1.14511        0.04839
O         -5.05583       -0.67667        0.54707
O         -3.92110       -2.29984       -0.32440
H          4.43219       -1.55063       -2.19993
H          4.43823       -2.84490       -0.99737
H          5.65007       -1.55820       -0.91984
H          3.21415        0.50877       -1.76125
H          1.43223        1.15214        2.12677
H          2.57950       -0.88135        2.98006
H          4.02211       -2.22836        1.48022
H          0.17567        3.38805       -0.96643
H         -1.91667        2.94745        0.57045
H         -3.87749        1.42164        0.85403
H         -1.68694       -1.75358       -1.11073
H          0.27765       -0.22946       -1.38350
