32
83107.log	Energy: -479291.3968879
C          2.75785        3.57688        0.07978
O          1.56603        2.76825       -0.06084
C          1.72286        1.39465       -0.02791
C          2.90867        0.71953       -0.01939
C          2.90948       -0.71645       -0.00550
C          1.72448       -1.39306       -0.00194
C          0.43106       -0.71626       -0.00856
C         -0.77872       -1.40936       -0.00068
C         -2.00447       -0.71566        0.00016
C         -3.26704       -1.41254        0.01309
C         -4.44260       -0.72023        0.01848
C         -4.44401        0.71551        0.00895
C         -3.26924        1.40897       -0.00582
C         -2.00567        0.71364       -0.01009
C         -0.78041        1.40818       -0.02161
C          0.43020        0.71668       -0.02103
O          1.56709       -2.76683        0.01129
C          2.76828       -3.57332        0.00889
H          2.34036        4.59182        0.08801
H          3.41642        3.43061       -0.78112
H          3.26393        3.35236        1.02301
H          3.86857        1.22399       -0.02614
H          3.87052       -1.21863        0.00084
H         -0.76701       -2.50213        0.00639
H         -3.25198       -2.50169        0.01934
H         -5.40129       -1.23623        0.02993
H         -5.40346        1.23027        0.01358
H         -3.25492        2.49805       -0.01364
H         -0.76985        2.50096       -0.03024
H          3.34724       -3.39079       -0.90102
H          3.35645       -3.38253        0.91113
H          2.35576       -4.59031        0.01547
