27
8323.log	Energy: -511093.2947966
C         -4.02327        0.73685       -0.00349
C         -4.04211       -0.65996        0.01777
C         -2.84028       -1.37666        0.02137
C         -1.61885       -0.69223        0.00573
C         -1.59818        0.71271       -0.01226
C         -2.80379        1.42383       -0.01805
C         -0.30739        1.47142       -0.02114
O         -0.33441        2.69791       -0.04974
C          0.95239        0.71420        0.00033
C          2.19378        1.37608        0.01182
C          3.42352        0.60501       -0.00964
C          3.39260       -0.75453       -0.02097
C          2.12086       -1.42916       -0.01059
C          0.92442       -0.71913       -0.00091
C         -0.34713       -1.46023        0.00658
O         -0.35293       -2.69213        0.01106
O          2.22186       -2.77712       -0.01209
N          2.30398        2.75209        0.09824
H         -4.95940        1.29613       -0.00740
H         -4.99209       -1.19457        0.03060
H         -2.84085       -2.47106        0.03594
H         -2.77812        2.51827       -0.03377
H          4.37439        1.14049       -0.00998
H          4.29597       -1.36857       -0.03583
H          1.29032       -3.24119       -0.00114
H          1.46401        3.33332        0.01860
H          3.18228        3.20416       -0.07783
