26
834965.log	Energy: -495502.8347621
C         -1.79350        2.91351        0.00386
C         -2.81410        1.99465       -0.00122
C         -2.53435        0.59080       -0.00396
C         -1.18575        0.15070        0.00201
C         -0.13926        1.13794        0.00833
C         -0.43747        2.48563        0.00839
C          1.23263        0.65599        0.01127
N          2.39930        1.32098        0.01751
C          3.39536        0.28793        0.00445
N          2.85429       -0.97116        0.01792
N          1.48961       -0.75653        0.01454
C          0.48187       -1.79876        0.00809
O          0.77862       -2.96476        0.01298
C         -0.90783       -1.25561        0.00046
C         -1.94779       -2.16700       -0.00766
C         -3.29688       -1.72304       -0.01523
C         -3.58490       -0.37951       -0.01276
N          4.75707        0.57858       -0.12071
H         -2.00337        3.98374        0.00246
H         -3.85585        2.31944       -0.00515
H          0.36575        3.23016        0.01234
H         -1.73738       -3.24334       -0.00817
H         -4.09426       -2.46717       -0.02316
H         -4.61991       -0.03184       -0.01871
H          5.38352       -0.14555        0.21479
H          5.02240        1.51015        0.18074
