26
8407.log	Energy: -451023.6847802
C         -4.46690        0.11084        0.09773
C         -3.93732       -0.79839       -0.82424
C         -2.56255       -1.03583       -0.87382
C         -1.71752       -0.35226        0.01814
C         -2.24066        0.55545        0.95412
C         -3.61829        0.78282        0.98345
N         -0.30985       -0.65825       -0.01382
C          0.70170        0.27682       -0.09486
C          0.41335        1.66429       -0.30334
C          1.42686        2.59195       -0.37699
C          2.78364        2.20238       -0.25136
C          3.09223        0.87420       -0.06909
C          2.07208       -0.11539        0.00644
N          2.50059       -1.48692        0.18381
O          1.64312       -2.37623        0.19243
O          3.69210       -1.71829        0.31432
H         -5.54003        0.29238        0.12760
H         -4.60026       -1.32436       -1.51195
H         -2.15200       -1.74042       -1.59620
H         -1.58275        1.06488        1.65768
H         -4.03321        1.48468        1.70737
H         -0.05953       -1.67043        0.02758
H         -0.62324        1.97770       -0.42910
H          1.19261        3.64685       -0.53992
H          3.56616        2.95548       -0.30619
H          4.13560        0.54433        0.02203
