26
840971.log	Energy: -391665.2366027
C         -2.17042       -1.92242        0.59577
N         -1.30291       -1.01693       -0.19818
C          0.12327       -1.22649       -0.10443
C          0.90871       -2.35166       -0.15373
C          2.32903       -2.16786       -0.13408
C          2.93487       -0.93137       -0.06046
C          2.13724        0.25691       -0.00374
C          0.75585        0.06270       -0.02824
C         -0.21220        1.11466        0.02105
C          0.21984        2.41040        0.10189
C          1.63599        2.64130        0.13161
C          2.56429        1.62349        0.08140
C         -1.54092        0.43996       -0.05328
N         -2.64540        1.11581       -0.13878
N         -3.89507        0.51769       -0.16502
H         -3.11442       -2.08342        0.04713
H         -2.41893       -1.52083        1.59300
H         -1.69222       -2.90608        0.72997
H          0.49834       -3.35287       -0.21801
H          2.94577       -3.06747       -0.17961
H          4.01753       -0.83937       -0.04506
H         -0.47077        3.24992        0.14305
H          1.97205        3.67719        0.19800
H          3.63069        1.83870        0.10552
H         -4.58262        1.24497       -0.39208
H         -3.99507       -0.25446       -0.83057
