23
84195.log	Energy: -449701.4961701
C         -3.54617       -0.03155        0.01528
C         -2.20519        0.60988        0.01061
C         -0.99450       -0.17531       -0.00307
C          0.27956        0.48139       -0.00287
C          0.30863        1.89830        0.00546
C         -0.85669        2.63336        0.01858
C         -2.11317        1.99069        0.02126
C          1.46818       -0.33221       -0.00460
C          1.35995       -1.71707       -0.00897
C          0.10590       -2.33176       -0.01571
N         -1.05782       -1.59803       -0.01501
O         -2.14385       -2.18555       -0.02470
N          2.82911        0.22101       -0.00031
O          2.99953        1.42286       -0.11313
O          3.74281       -0.58615        0.11478
H         -3.69322       -0.67517       -0.87143
H         -4.37306        0.68923        0.03960
H         -3.67308       -0.70987        0.87887
H          1.27723        2.41740       -0.00112
H         -0.81835        3.72591        0.02660
H         -3.01678        2.60085        0.03244
H          2.26377       -2.34822       -0.00709
H          0.00750       -3.42457       -0.02202
