26
842059.log	Energy: -451114.1849608
C         -3.77923       -1.66338        0.28761
C         -4.54556       -0.50127        0.09566
C         -3.91998        0.71132       -0.14691
C         -2.50864        0.78253       -0.21780
C         -1.72823       -0.38509       -0.04885
C         -2.39333       -1.60422        0.21899
N         -0.29890       -0.47138       -0.18823
C          0.63110        0.48942        0.15667
O          0.33012        1.63289        0.50800
C          2.08980        0.10221        0.05542
C          3.06456        1.09408        0.24136
C          4.41307        0.72493        0.15643
C          4.74399       -0.60400       -0.10558
C          3.70508       -1.54073       -0.27773
N          2.39731       -1.20121       -0.20033
O         -2.04735        2.02436       -0.50158
H         -4.27380       -2.61056        0.49180
H         -5.63293       -0.55563        0.14426
H         -4.48562        1.63195       -0.29237
H         -1.80980       -2.51315        0.37183
H          0.04509       -1.40963       -0.44690
H          2.76237        2.12470        0.45019
H          5.19393        1.47463        0.29458
H          5.78337       -0.92010       -0.17619
H          3.91778       -2.59718       -0.48330
H         -1.08719        2.19024       -0.17686
