29
84458.log	Energy: -408361.4410274
C          3.89582        1.04340       -0.00058
C          4.64726       -0.25677       -0.00126
C          4.04872       -1.46179       -0.00059
C          2.59477       -1.60241        0.00110
C          1.82897       -0.49684        0.00131
C          2.41677        0.87904       -0.00097
C          1.43532        1.81458       -0.00423
C          0.12647        1.13550       -0.00156
C         -1.14323        1.63013        0.00160
C         -2.25004        0.71081        0.00377
C         -3.59627        1.18616        0.00291
C         -4.65032        0.30323       -0.00067
C         -4.41387       -1.09811       -0.00642
C         -3.12736       -1.58384       -0.00270
C         -2.01387       -0.69104        0.00312
C         -0.66525       -1.19470        0.00498
C          0.36885       -0.30885        0.00138
H          4.20609        1.64846       -0.88493
H          4.20558        1.64596        0.88597
H          5.73205       -0.15706       -0.00257
H          4.62741       -2.38490       -0.00082
H          2.17837       -2.60699        0.00158
H          1.53219        2.88339       -0.00749
H         -1.34275        2.69858        0.00144
H         -3.77154        2.26100        0.00622
H         -5.67779        0.66331        0.00015
H         -5.26492       -1.77652       -0.01232
H         -2.93874       -2.65640       -0.00403
H         -0.50242       -2.26980        0.00968
