30
848559.log	Energy: -501751.8881549
C         -0.03968        4.15512        0.13015
O          0.46401        2.81648       -0.09063
C         -0.44959        1.77973       -0.04210
C          0.10529        0.50224       -0.02192
C          1.51181        0.06169       -0.01517
C          2.68661        0.79118       -0.02687
C          3.90579        0.08066       -0.01407
C          3.92793       -1.31116        0.00828
C          2.72812       -2.05626        0.01823
C          1.53396       -1.36535        0.00707
C          0.11882       -1.88581        0.01423
O         -0.22315       -3.03784        0.03510
C         -0.73861       -0.64772       -0.00631
C         -2.12227       -0.49004       -0.00650
C         -2.68017        0.81633       -0.02580
C         -1.85694        1.93012       -0.04425
O         -2.84990       -1.64964        0.01555
C         -4.29555       -1.55074        0.00546
H          0.88552        4.74642        0.09976
H         -0.51773        4.22921        1.11064
H         -0.71306        4.44732       -0.68041
H          2.66598        1.88078       -0.04614
H          4.84209        0.63870       -0.02199
H          4.87991       -1.83962        0.01842
H          2.74732       -3.14594        0.03538
H         -3.75940        0.94797       -0.02700
H         -2.29947        2.92474       -0.06408
H         -4.65060       -1.03189        0.89963
H         -4.64071       -1.07668       -0.91700
H         -4.58074       -2.61293        0.03008
