30
851836.log	Energy: -511983.6199915
C         -3.64576        2.94512        0.12041
O         -2.66124        1.89296       -0.01716
C         -3.10945        0.58359        0.01231
C         -4.43977        0.18299        0.07607
C         -4.73571       -1.18931        0.08985
C         -3.71248       -2.13131        0.03913
C         -2.37013       -1.73000       -0.02606
C         -2.04577       -0.37150       -0.04027
N         -0.70744        0.12940       -0.10988
C          0.45045       -0.65940       -0.13401
O          0.42760       -1.87743       -0.11275
C          1.71746        0.14265       -0.19220
C          2.89261       -0.44445        0.04391
C          4.15508        0.33644       -0.01433
O          4.31767        1.51972       -0.20288
O          5.20607       -0.52581        0.19602
C          6.53767        0.05695        0.17810
H         -3.01569        3.84390        0.09455
H         -4.16591        2.85577        1.07856
H         -4.33854        2.92567       -0.72625
H         -5.24711        0.90761        0.11369
H         -5.77548       -1.50929        0.14020
H         -3.94652       -3.19514        0.04959
H         -1.57575       -2.48631       -0.06553
H         -0.63086        1.15317       -0.11489
H          1.64043        1.20658       -0.44097
H          2.99351       -1.51300        0.28318
H          6.73418        0.49090       -0.80749
H          6.61722        0.81803        0.96083
H          7.17660       -0.80971        0.38046
