26
88512.log	Energy: -427433.0844973
C          4.78363       -0.87609        0.96902
C          4.30130       -0.33340       -0.37080
C          3.12755        0.63509       -0.22692
O          1.97263       -0.21424       -0.51938
C          0.71538        0.29920       -0.26952
C         -0.28604       -0.65832       -0.22179
C         -1.63306       -0.26167       -0.03241
C         -1.95474        1.11511        0.11558
C         -0.88740        2.07317        0.07266
C          0.41614        1.67916       -0.12024
N         -3.24558        1.56469        0.27933
N         -2.63536       -1.31591        0.00489
O         -2.27691       -2.47202       -0.14385
O         -3.81200       -0.99553        0.19041
H          5.14439       -0.08085        1.63032
H          5.60687       -1.58813        0.83306
H          3.98009       -1.40761        1.49624
H          5.13338        0.16368       -0.90633
H          3.98127       -1.17818       -1.02475
H          3.02680        1.05148        0.78794
H          3.14959        1.44161       -0.97835
H         -0.04376       -1.72222       -0.33480
H         -1.12519        3.12991        0.18821
H          1.21301        2.42126       -0.16225
H         -4.02575        0.90973        0.34948
H         -3.44050        2.53862        0.42074
