28
886912.log	Energy: -508744.0665427
C          5.02902       -1.16125        0.17867
C          3.61470       -1.69573        0.13783
O          2.83206       -0.44779        0.00998
C          1.48441       -0.50269        0.00544
C          0.83800        0.75714       -0.08145
C         -0.56944        0.81597       -0.09621
C         -1.32524       -0.35114       -0.01217
C         -0.66888       -1.60452        0.07512
C          0.71307       -1.68563        0.08309
C         -2.77967       -0.31141       -0.03141
C         -3.70561       -1.07753       -0.75453
N         -5.00392       -0.68473       -0.43486
C         -4.89514        0.31034        0.47423
N         -3.54127        0.57651        0.75360
N          1.60002        2.00726       -0.15615
O          2.81209        1.94515       -0.24700
O          0.95832        3.04947       -0.11722
H          5.02723       -0.07436       -0.05092
H          5.68025       -1.63763       -0.56254
H          5.49243       -1.26595        1.16636
H          3.40265       -2.31688       -0.74779
H          3.30706       -2.20448        1.06546
H         -1.04995        1.79935       -0.18469
H         -1.27152       -2.51593        0.13775
H          1.19912       -2.65611        0.14730
H         -3.51663       -1.85581       -1.47270
H         -5.71418        0.84251        0.93404
H         -3.17118        1.25595        1.39193
