28
899317.log	Energy: -506317.9469381
C          5.06350       -0.49800       -0.14447
C          4.84182        0.25135        1.20789
N          3.39647        0.60049        1.25438
C          2.85292        0.20138        0.11945
N          3.75112       -0.35325       -0.85859
N          1.47725        0.45209       -0.19670
N          0.87858       -0.53971       -0.92886
C         -0.40521       -0.57596       -1.11437
C         -1.46165        0.31367       -0.58697
C         -1.34945        1.70155       -0.76799
C         -2.33365        2.56589       -0.28449
C         -3.44754        2.05853        0.39556
C         -3.58043        0.68393        0.58062
C         -2.59549       -0.18782        0.08333
N         -2.80687       -1.63917        0.29297
O         -2.13422       -2.42416       -0.35417
O         -3.66163       -1.96439        1.10133
H          5.35650       -1.55267        0.00508
H          5.84332       -0.00808       -0.76198
H          5.09429       -0.37103        2.08857
H          5.44836        1.17751        1.26742
H          3.42811       -1.15510       -1.39685
H          0.95549        0.93713        0.55522
H         -0.76752       -1.40685       -1.75939
H         -0.48717        2.10618       -1.30613
H         -2.23219        3.64300       -0.43621
H         -4.21092        2.73667        0.77958
H         -4.44618        0.27133        1.11383
