23
901271.log	Energy: -685984.6672755
C          3.94651       -0.13086       -0.00604
C          3.68797        0.18338        1.33320
C          2.36525        0.12275        1.80132
N          1.32627       -0.23948        1.00118
C          1.60932       -0.53547       -0.28880
C          2.89365       -0.49931       -0.84900
S          0.27189       -1.05003       -1.32235
C         -1.19346       -0.74838       -0.37888
C         -1.64814        0.54427       -0.09073
C         -2.86482        0.69792        0.61848
N         -3.60897       -0.36427        0.99883
C         -3.16364       -1.61463        0.69351
C         -1.95972       -1.84762        0.00788
N         -0.90148        1.74801       -0.50338
O          0.08930        1.59527       -1.19130
O         -1.34723        2.82296       -0.13567
H          4.96506       -0.08476       -0.39391
H          4.49531        0.47611        2.00042
H          2.10990        0.36496        2.83973
H          3.06864       -0.73372       -1.89764
H         -3.24158        1.70212        0.87806
H         -3.80371       -2.44471        1.02392
H         -1.62867       -2.86748       -0.19926
