26
90352.log	Energy: -552008.7169592
C         -0.02985        2.26909       -0.13171
N         -0.84832        1.05423       -0.05047
C         -0.42273       -0.28239       -0.01767
N         -1.52299       -1.10264        0.03041
C         -2.61325       -0.21837       -0.00044
N         -2.20434        1.11494       -0.04028
N         -3.93987       -0.64927       -0.08735
C         -5.01181        0.29856        0.33955
O         -6.22969       -0.29528       -0.07713
C          0.93750       -0.75649       -0.02009
C          1.50656       -2.01565       -0.05257
C          2.92501       -1.83336       -0.03292
C          3.13851       -0.47142        0.00831
O          1.92515        0.24038        0.01564
N          4.32145        0.37493        0.04054
O          5.39727       -0.19691        0.04898
O          4.14594        1.57906        0.05642
H          0.32989        2.42842       -1.16770
H          0.85519        2.18810        0.53254
H         -0.61451        3.16179        0.16691
H         -4.09461       -1.62516        0.19735
H         -5.12649        0.38324        1.44171
H         -4.85637        1.28946       -0.13817
H         -6.27581       -0.36181       -1.05994
H          0.97723       -2.95659       -0.08255
H          3.67503       -2.61066       -0.04621
