29
907542.log	Energy: -437013.9756619
C          4.10325        0.52565        0.36581
C          4.07412       -0.84532       -0.31707
C          2.81233       -1.61938        0.07222
C          1.55980       -0.78628        0.00524
N          0.41450       -1.47453        0.00911
C         -0.79577       -0.78541       -0.00101
N         -1.95076       -1.53559       -0.01238
C         -3.13388       -0.84417        0.00403
N         -3.27259        0.55063        0.01183
C         -2.12430        1.27745       -0.00051
C         -0.82117        0.65516        0.00091
C          0.41740        1.34692       -0.02094
C          1.60874        0.65860       -0.02508
C          2.92008        1.38468       -0.09918
N         -2.27751        2.65566       -0.07254
N         -4.30570       -1.57316        0.06481
H          4.06859        0.40003        1.46588
H          5.05475        1.04463        0.14675
H          4.11544       -0.72101       -1.41747
H          4.97124       -1.43206       -0.04307
H          2.69889       -2.52367       -0.56701
H          2.90619       -2.01746        1.10811
H          0.41422        2.43695       -0.04260
H          2.88168        2.31620        0.50104
H          3.08724        1.70725       -1.15030
H         -1.51321        3.25723        0.18027
H         -3.20553        3.04460        0.03686
H         -5.18911       -1.10757       -0.06615
H         -4.26954       -2.57360       -0.06452
