21
91154.log	Energy: -659263.5689754
C         -4.20349        1.19749       -0.17357
C         -4.74515       -0.18424        0.31225
N         -3.56579       -1.08916        0.37326
C         -2.51742       -0.40140       -0.03534
N         -2.76555        0.92760       -0.51571
N         -1.22791       -1.02077       -0.12290
C         -0.04063       -0.35195       -0.02421
N          0.12468        0.99010        0.12560
C          1.46302        1.32701        0.15879
C          2.34060        0.26047        0.04342
S          1.49462       -1.24496       -0.12298
N          3.77258        0.24822        0.04233
O          4.36257        1.30856        0.15661
O          4.29570       -0.85024       -0.07591
H         -4.31856        1.98642        0.59191
H         -4.71471        1.53754       -1.09783
H         -5.21971       -0.13307        1.31246
H         -5.49387       -0.60504       -0.39018
H         -2.09295        1.66516       -0.28971
H         -1.23706       -2.05112       -0.08448
H          1.74904        2.37678        0.27374
