21
918947.log	Energy: -319674.0352280
C          2.60599       -0.92361       -0.02449
C          1.37869       -1.53451       -0.04539
C          0.18230       -0.74892       -0.00663
C         -1.14173       -1.31401        0.01008
C         -2.24693       -0.47586        0.03267
C         -2.10141        0.92802        0.02199
C         -0.84556        1.51868        0.00136
C          0.32730        0.66702        0.01473
N          1.57998        1.27322        0.06084
C          2.66400        0.50638        0.04309
N         -0.71161        2.92222       -0.14001
N         -1.31564       -2.72674       -0.08740
H          3.53128       -1.49258       -0.05981
H          1.30083       -2.62073       -0.10717
H         -3.25505       -0.88754        0.04068
H         -2.99968        1.54367        0.01265
H          3.63619        1.01337        0.08125
H          0.22529        3.28275        0.01865
H         -1.40905        3.47105        0.34289
H         -0.59945       -3.27605        0.37007
H         -2.23534       -3.05388        0.18229
