23
9204.log	Energy: -312567.0154932
C         -2.56679       -1.24471        0.00718
C         -3.45741       -0.03588       -0.01131
C         -2.99619        1.22840       -0.00940
C         -1.56651        1.52967        0.00388
C         -0.68295        0.51577        0.00677
C         -1.11589       -0.91772        0.00528
C         -0.03170       -1.73396        0.00273
C          1.18456       -0.90012        0.00089
C          2.52495       -1.24705       -0.00626
C          3.48247       -0.21416       -0.00805
C          3.09860        1.12568       -0.00094
C          1.73754        1.49005        0.00633
C          0.78892        0.48370        0.00655
H         -2.80681       -1.89122       -0.86996
H         -2.81008       -1.86604        0.90140
H         -4.52453       -0.25448       -0.02389
H         -3.67374        2.08155       -0.02000
H         -1.26425        2.57438        0.00735
H         -0.00177       -2.80604        0.00183
H          2.83751       -2.28737       -0.01187
H          4.54023       -0.47307       -0.01567
H          3.85656        1.90646       -0.00204
H          1.44930        2.53784        0.01088
