31
921438.log	Energy: -486857.4672879
C          0.08564        2.94081        0.51650
C          1.52713        2.40256        0.44001
N          1.40392        1.14761       -0.41481
N          0.06427        0.84501       -0.61698
C         -0.69913        1.83546       -0.18645
N         -2.06581        2.05134       -0.43596
C         -3.01855        1.18042       -0.39694
C         -3.01704       -0.23415       -0.05596
C         -2.11030       -1.24492        0.15832
C         -2.86414       -2.42894        0.47709
C         -4.19019       -2.07889        0.43608
O         -4.33522       -0.73558        0.10935
C          2.29200        0.04071       -0.18773
C          1.96058       -1.24769       -0.66022
C          2.88067       -2.28536       -0.53272
C          4.13058       -2.06347        0.05893
C          4.45783       -0.78601        0.51790
C          3.55052        0.27016        0.40221
H         -0.26918        3.09874        1.54818
H         -0.03539        3.90446       -0.01380
H          2.21099        3.09635       -0.08826
H          1.94522        2.19225        1.44234
H         -4.03229        1.57419       -0.64067
H         -1.03455       -1.19198        0.09292
H         -2.44043       -3.39057        0.69707
H         -5.12216       -2.57809        0.59112
H          0.99604       -1.42365       -1.13786
H          2.62428       -3.27905       -0.89975
H          4.84143       -2.87969        0.15539
H          5.43135       -0.60612        0.97376
H          3.83619        1.25589        0.75678
