30
927434.log	Energy: -499376.0705062
C          0.55749        3.37211        1.16423
C          0.09216        3.00251       -0.24327
C         -0.73140        1.74494       -0.23918
C         -2.13751        1.95574       -0.26342
N         -3.05919        0.98733       -0.22261
C         -2.61041       -0.32428       -0.11512
C         -1.21291       -0.63078       -0.05694
C         -0.25429        0.42898       -0.16478
C          1.15759        0.01955       -0.17843
C          2.25269        0.86399       -0.46686
C          3.56438        0.41126       -0.41843
C          3.84879       -0.92407       -0.08484
C          2.81232       -1.80697        0.17097
C          1.49086       -1.32437        0.09643
O          0.54724       -2.30382        0.30012
C         -0.82443       -2.00854        0.15070
O         -1.52317       -2.99551        0.24338
N         -3.59322       -1.27621       -0.07081
H         -0.29224        3.52323        1.84031
H          1.14710        4.29455        1.16267
H          1.17648        2.58044        1.60568
H         -0.49441        3.84418       -0.67025
H          0.96298        2.90705       -0.93128
H         -2.53903        2.98007       -0.32303
H          2.06974        1.90744       -0.75528
H          4.38294        1.09232       -0.64451
H          4.88398       -1.26458       -0.03895
H          2.98176       -2.85558        0.41301
H         -3.37134       -2.26586        0.03377
H         -4.56566       -1.00679       -0.09273
