24
931480.log	Energy: -344177.5905070
C         -3.99246       -0.88158        0.00486
C         -2.59195       -0.36490       -0.00362
C         -1.51299       -1.21885        0.01332
C         -0.18402       -0.69222        0.01049
N          0.88031       -1.57759        0.02680
C          2.12965       -1.03474        0.00629
N          2.42055        0.34704        0.01845
C          1.38461        1.19341        0.00720
C          0.02242        0.72334       -0.00397
C         -1.11908        1.57517       -0.02252
C         -2.38727        1.05418       -0.02264
C          1.70414        2.65122        0.01455
N          3.22200       -1.88301       -0.07779
H         -4.50578       -0.61289        0.94015
H         -4.04407       -1.97518       -0.08730
H         -4.58293       -0.46130       -0.82217
H         -1.63107       -2.30246        0.02682
H         -0.96789        2.65511       -0.03663
H         -3.25705        1.70639       -0.03621
H          1.32288        3.14743       -0.89004
H          1.26842        3.15380        0.88991
H          2.79303        2.83297        0.04568
H          3.08279       -2.86936        0.08321
H          4.14341       -1.50970        0.09064
