28
950552.log	Energy: -498566.5029825
C          5.43169        0.59751        0.19472
C          5.36564       -0.74682       -0.26467
C          4.15740       -1.38297       -0.47663
C          2.98599       -0.63983       -0.21795
C          3.03349        0.72069        0.24041
C          4.28778        1.33062        0.44783
C          1.67727        1.16797        0.38777
C          0.84434        0.11208        0.03784
N          1.63620       -1.01196       -0.31128
C         -0.61672        0.05921        0.02619
C         -1.34301        1.18171       -0.41499
C         -2.73520        1.15557       -0.42870
C         -3.40381       -0.00161        0.00155
C         -2.69280       -1.12606        0.44911
C         -1.30071       -1.09196        0.46090
N         -4.88112       -0.03617       -0.01550
O         -5.46707        0.97494       -0.36669
O         -5.42584       -1.07507        0.32200
H          6.41239        1.04510        0.34568
H          6.29931       -1.27779       -0.45033
H          4.10284       -2.40869       -0.82490
H          4.33621        2.35857        0.80039
H          1.37837        2.14095        0.72387
H          1.28653       -1.86456       -0.70395
H         -0.81108        2.07336       -0.75289
H         -3.31241        2.02241       -0.77071
H         -3.23851       -2.01456        0.78720
H         -0.74397       -1.95350        0.83028
