25
956878.log	Energy: -686719.0839639
C         -1.65277        2.00978        0.68776
N         -2.16461        0.78518        0.03728
C         -1.35013       -0.37565       -0.10632
C         -2.03522       -1.52162       -0.32225
S         -3.76262       -1.25295       -0.28956
C         -3.57416        0.49264        0.07357
N         -4.60209        1.22564        0.24143
C          0.12278       -0.25272       -0.07404
C          0.83328       -0.71882        1.04354
C          2.22478       -0.62149        1.07218
C          2.89253       -0.05671       -0.02479
C          2.19098        0.40818       -1.14850
C          0.80012        0.30964       -1.16787
N          4.37061        0.05058        0.00242
O          4.94620       -0.34691        1.00202
O          4.91801        0.53126       -0.97559
H         -2.15692        2.89428        0.25869
H         -0.57184        2.13470        0.50279
H         -1.81617        2.00333        1.77969
H         -1.63877       -2.50505       -0.51065
H         -4.53774        2.21761        0.43267
H          0.29772       -1.16257        1.88566
H          2.79847       -0.98112        1.93473
H          2.73776        0.84118       -1.99467
H          0.23528        0.66084       -2.03492
