18
960719.log	Energy: -520834.9382697
C          3.44998       -0.03180        0.03148
C          1.98188        0.24898        0.01529
C          1.05720       -0.77663       -0.00205
C         -0.36778       -0.44601        0.00079
N         -1.39411       -1.28549        0.02892
S         -2.82676       -0.36936        0.01564
N         -2.09156        1.16560       -0.01520
C         -0.77556        0.99672       -0.01760
C          0.25048        2.00760       -0.01991
C          1.55451        1.63055        0.00191
N          1.41401       -2.13427       -0.11869
H          3.75003       -0.58086        0.93435
H          4.05172        0.88658        0.00576
H          3.74950       -0.62764       -0.84490
H         -0.06450        3.04984       -0.03555
H          2.34182        2.38920        0.00749
H          0.68635       -2.80747        0.09398
H          2.31057       -2.39730        0.26389
