27
96365.log	Energy: -451180.8432655
C         -1.45480        0.25947       -1.13118
C         -2.83338        0.81190       -0.73923
O         -3.63437       -0.22260       -0.13002
C         -3.01708       -0.76555        1.05308
C         -1.64614       -1.37590        0.70726
N         -0.80753       -0.28665        0.10931
C          0.58391       -0.61686       -0.05958
C          1.05417       -1.93971       -0.20800
C          2.41930       -2.20680       -0.26331
C          3.35451       -1.16601       -0.17221
C          2.91537        0.14592       -0.02084
C          1.53897        0.42058        0.02881
N          1.14392        1.83859        0.22457
O          1.46959        2.36548        1.27088
O          0.56090        2.39740       -0.68989
H         -0.82210        1.07828       -1.55102
H         -1.56137       -0.51632       -1.91940
H         -2.75097        1.66597       -0.04285
H         -3.43493        1.09215       -1.62210
H         -3.74375       -1.53239        1.37405
H         -2.93079        0.02887        1.81620
H         -1.78455       -2.24061        0.02255
H         -1.15116       -1.74605        1.63084
H          0.34345       -2.76136       -0.29176
H          2.76567       -3.23538       -0.38241
H          4.42094       -1.38417       -0.21532
H          3.63687        0.96290        0.06742
