30
964257.log	Energy: -476148.4602587
C         -2.26665        2.88555       -0.30337
N         -1.72450        1.52481       -0.18308
C         -2.51331        0.34705       -0.07398
C         -3.89254        0.19373       -0.11285
C         -4.40056       -1.11040        0.02338
C         -3.55598       -2.20682        0.19338
C         -2.15772       -2.04570        0.23107
C         -1.62979       -0.77348        0.09734
C         -0.24001       -0.28279        0.08572
C          0.86185       -1.04584        0.14147
C          2.26173       -0.62427        0.08925
C          3.19139       -1.44993       -0.59117
N          4.51038       -1.16075       -0.67805
C          4.95974       -0.02502       -0.07718
C          4.10906        0.84646        0.61768
C          2.74735        0.54260        0.69932
C         -0.33420        1.21877       -0.05243
O          0.52200        2.07395       -0.05436
H         -2.89226        2.97867       -1.20759
H         -1.43034        3.60878       -0.38512
H         -2.87017        3.15417        0.58040
H         -4.55805        1.04061       -0.24364
H         -5.48054       -1.25984       -0.00558
H         -3.97842       -3.20430        0.29726
H         -1.51235       -2.91169        0.36356
H          0.73201       -2.13768        0.21603
H          2.87016       -2.37041       -1.09384
H          6.03385        0.17292       -0.16954
H          4.50036        1.75100        1.07883
H          2.06626        1.21848        1.22617
