24
9660703.log	Energy: -593015.8057395
C          2.84396        1.32690        0.40393
C          3.45069        0.80741       -0.91192
O          3.84611       -0.56956       -0.77522
C          2.76047       -1.44266       -0.39252
C          2.14701       -0.98272        0.93753
N          1.73184        0.44699        0.86308
C          0.44435        0.77568        0.42159
N         -0.47773       -0.17276        0.32537
C         -1.80515        0.15501        0.08517
N         -2.40866        1.32915       -0.08554
C         -3.78890        1.16628       -0.30975
C         -4.24325       -0.12182       -0.31428
S         -2.93156       -1.22170       -0.02721
H          2.50227        2.37740        0.29969
H          3.61848        1.32223        1.20789
H          2.74905        0.90149       -1.75911
H          4.40760        1.30382       -1.15624
H          3.26845       -2.42006       -0.30785
H          2.01348       -1.47333       -1.20540
H          2.88928       -1.06859        1.76313
H          1.27499       -1.62167        1.21387
H          0.26545        1.86015        0.26800
H         -4.37816        2.06614       -0.45966
H         -5.24801       -0.47218       -0.46600
