25
973104.log	Energy: -686796.6422769
C          4.37043        2.54305        0.02514
O          4.65313        1.12264        0.01654
C          3.59403        0.24794        0.00329
C          4.00685       -1.10323       -0.00766
C          3.03049       -2.09034       -0.02130
C          1.66608       -1.76570       -0.02353
C          1.28416       -0.42022       -0.01092
C          2.24658        0.61489        0.00229
N         -0.08898       -0.00617       -0.01254
C         -1.19889       -0.85861       -0.00016
O         -1.13896       -2.07246        0.01312
C         -2.53197       -0.16018        0.00027
N         -2.73328        1.14112       -0.04038
S         -4.41611        1.42488       -0.02146
N         -4.87001       -0.22996        0.04307
C         -3.78198       -0.96027        0.04863
H          5.38163        2.97155        0.03121
H          3.82447        2.81513        0.93276
H          3.82971        2.82818       -0.88160
H          5.06727       -1.34012       -0.00406
H          3.32404       -3.14192       -0.03183
H          0.91755       -2.56249       -0.03510
H          1.94670        1.65483        0.01048
H         -0.25347        1.00966       -0.02735
H         -3.76249       -2.05322        0.08414
