22
98573.log	Energy: -475290.8281516
C         -2.57370        1.93209       -0.00421
C         -1.20666        1.83345       -0.00300
C         -0.57582        0.54962       -0.00032
C         -1.36504       -0.64508       -0.00129
C         -0.75897       -1.92612       -0.00003
C          0.62373       -2.07181        0.00037
C          1.39385       -0.90581       -0.00093
C          0.82328        0.36726        0.00045
C          1.90830        1.38441        0.00264
O          1.94751        2.57409        0.00654
O          3.14310        0.64934       -0.00056
C          2.88819       -0.75346       -0.00176
O          3.80253       -1.51534       -0.00265
C         -2.79972       -0.47077       -0.00088
C         -3.39712        0.76803       -0.00185
O         -3.50041       -1.64860        0.00380
H         -3.06257        2.90890       -0.00715
H         -0.56925        2.72208       -0.00443
H         -1.41137       -2.80725        0.00217
H          1.09841       -3.05361        0.00151
H         -4.47667        0.88544        0.00232
H         -4.48234       -1.50233        0.01340
