23
99482.log	Energy: -540453.3320301
C          1.57805       -1.64281       -0.11953
C          0.19138       -1.68446       -0.11571
C         -0.56851       -0.49129       -0.05241
C          0.10817        0.74815        0.01491
C          1.50979        0.79269        0.02229
C          2.23419       -0.39893       -0.05321
N          3.71675       -0.35581       -0.05906
O          4.30068       -1.42337       -0.09186
O          4.23968        0.74277       -0.03302
N         -0.58859        2.06210        0.12818
O         -0.35007        2.71252        1.12284
O         -1.30839        2.39322       -0.79358
N         -1.98348       -0.61274       -0.00452
C         -2.95435        0.13098       -0.73132
C         -4.18074       -0.42522       -0.41696
N         -4.01653       -1.49983        0.48156
C         -2.71127       -1.62379        0.71597
H          2.17200       -2.56676       -0.17729
H         -0.32035       -2.64997       -0.18356
H          2.04251        1.75578        0.09503
H         -2.69494        0.94684       -1.39065
H         -5.16492       -0.14228       -0.75697
H         -2.22666       -2.33265        1.37110
