25
9990547.log	Energy: -450453.8056052
C         -2.91908       -1.34713        0.30338
C         -2.88086        0.09556        0.75294
N         -1.98887       -0.37766       -0.35468
C         -0.57940       -0.46481       -0.14675
C          0.19821        0.64685        0.03396
C          1.70173        0.54129       -0.08328
O          2.38737        1.44527       -0.48075
C          2.29902       -0.85720        0.26081
O          3.38294       -0.95235        0.77357
C          1.42228       -1.96523       -0.10437
C          0.09462       -1.77650       -0.29081
O         -0.76313       -2.79386       -0.57603
N         -0.32155        1.89285        0.45810
C          0.14636        3.18262       -0.13437
C         -1.26191        2.68982       -0.39042
H         -3.72687       -1.71044       -0.34095
H         -2.53714       -2.14341        0.94632
H         -3.66495        0.79450        0.44645
H         -2.46165        0.36746        1.72567
H          1.90192       -2.93911       -0.16842
H         -0.28789       -3.66484       -0.69553
H          0.33758        3.97708        0.59500
H          0.89253        3.19271       -0.93663
H         -1.55328        2.32959       -1.38107
H         -2.11063        3.12612        0.14436
